
-------------------------------------------------------------------------
|    ___ _   _ ___                                                      |
|   / __| | | |_  )   Release 7.0.5 "Blackbird"                         |
|   \__ \ |_| |/ /                                                      |
|   |___/\___//___|   Suite (Computational Fluid Dynamics Code)         |
|                                                                       |
-------------------------------------------------------------------------
| SU2 Project Website: https://su2code.github.io                        |
|                                                                       |
| The SU2 Project is maintained by the SU2 Foundation                   |
| (http://su2foundation.org)                                            |
-------------------------------------------------------------------------
| Copyright 2012-2020, SU2 Contributors                                 |
|                                                                       |
| SU2 is free software; you can redistribute it and/or                  |
| modify it under the terms of the GNU Lesser General Public            |
| License as published by the Free Software Foundation; either          |
| version 2.1 of the License, or (at your option) any later version.    |
|                                                                       |
| SU2 is distributed in the hope that it will be useful,                |
| but WITHOUT ANY WARRANTY; without even the implied warranty of        |
| MERCHANTABILITY or FITNESS FOR A PARTICULAR PURPOSE. See the GNU      |
| Lesser General Public License for more details.                       |
|                                                                       |
| You should have received a copy of the GNU Lesser General Public      |
| License along with SU2. If not, see <http://www.gnu.org/licenses/>.   |
-------------------------------------------------------------------------

Parsing config file for zone 0

----------------- Physical Case Definition ( Zone 0 ) -------------------
Compressible Euler equations.
Mach number: 0.15.
Angle of attack (AoA): -0.5 deg, and angle of sideslip (AoS): 0 deg.
No restart solution, use the values at infinity (freestream).
Non-Dimensional simulation (P=1.0, Rho=1.0, T=1.0 at the farfield).
The reference area is 1 m^2.
The semi-span will be computed using the max y(3D) value.
The reference length is 1 m.
Reference origin for moment evaluation is (0.25, 0, 0).
Surface(s) where the force coefficients are evaluated: airfoil.

Surface(s) plotted in the output file: airfoil.
Surface(s) affected by the design variables: airfoil.
Input mesh file name: mesh_NACA0012_inv_deform.su2

--------------- Space Numerical Integration ( Zone 0 ) ------------------
Jameson-Schmidt-Turkel scheme (2nd order in space) for the flow inviscid terms.
JST viscous coefficients (2nd & 4th): 0.5, 0.02.
The method includes a grid stretching correction (p = 0.3).
Gradient for upwind reconstruction: Green-Gauss.
Gradient for viscous and source terms: Green-Gauss.

--------------- Time Numerical Integration  ( Zone 0 ) ------------------
Local time stepping (steady state simulation).
Euler implicit method for the flow equations.
FGMRES is used for solving the linear system.
Using a LU-SGS preconditioning.
Convergence criteria of the linear solver: 0.0001.
Max number of linear iterations: 2.
V Multigrid Cycle, with 2 multigrid levels.
Damping factor for the residual restriction: 1.
Damping factor for the correction prolongation: 1.
No CFL adaptation.
+-------------------------------------------+
|  MG Level| Presmooth|PostSmooth|CorrectSmo|
+-------------------------------------------+
|         0|         1|         0|         0|
|         1|         2|         0|         0|
|         2|         3|         0|         0|
+-------------------------------------------+
Courant-Friedrichs-Lewy number:       10

------------------ Convergence Criteria  ( Zone 0 ) ---------------------
Maximum number of solver subiterations: 1000.
Begin convergence monitoring at iteration 10.
Residual minimum value: 1e-13.
Cauchy series min. value: 1e-06.
Number of Cauchy elements: 100.
Begin windowed time average at iteration 0.

-------------------- Output Information ( Zone 0 ) ----------------------
Writing solution files every 250 iterations.
Writing the convergence history file every 1 inner iterations.
Writing the screen convergence history every 1 inner iterations.
The tabular file format is CSV (.csv).
Convergence history file name: history_direct.
Forces breakdown file name: forces_breakdown.dat.
Surface file name: surface_flow.
Volume file name: flow.
Restart file name: restart_flow.dat.

------------- Config File Boundary Information ( Zone 0 ) ---------------
+-----------------------------------------------------------------------+
|                        Marker Type|                        Marker Name|
+-----------------------------------------------------------------------+
|                         Euler wall|                            airfoil|
+-----------------------------------------------------------------------+
|                          Far-field|                           farfield|
+-----------------------------------------------------------------------+

-------------------- Output Preprocessing ( Zone 0 ) --------------------
Screen output fields: INNER_ITER, RMS_DENSITY, RMS_ENERGY, LIFT, DRAG
History output group(s): ITER, RMS_RES, AERO_COEFF
Convergence field(s): RMS_DENSITY
Warning: No (valid) fields chosen for time convergence monitoring. Time convergence monitoring inactive.
Volume output fields: COORDINATES, SOLUTION, PRIMITIVE

------------------- Geometry Preprocessing ( Zone 0 ) -------------------
Two dimensional problem.
5233 grid points.
10216 volume elements.
2 surface markers.
200 boundary elements in index 0 (Marker = airfoil).
50 boundary elements in index 1 (Marker = farfield).
10216 triangles.
Setting point connectivity.
Renumbering points (Reverse Cuthill McKee Ordering).
Recomputing point connectivity.
Setting element connectivity.
Checking the numerical grid orientation.
Identifying edges and vertices.
Computing centers of gravity.
Setting the control volume structure.
Area of the computational grid: 1253.25.
Searching for the closest normal neighbors to the surfaces.
Storing a mapping from global to local point index.
Compute the surface curvature.
Max K: 7835.1. Mean K: 34.8203. Standard deviation K: 494.448.
Checking for periodicity.
Computing mesh quality statistics for the dual control volumes.
+--------------------------------------------------------------+
|           Mesh Quality Metric|        Minimum|        Maximum|
+--------------------------------------------------------------+
|    Orthogonality Angle (deg.)|        62.6722|        89.7085|
|     CV Face Area Aspect Ratio|              1|        7.18345|
|           CV Sub-Volume Ratio|        1.00285|        6.47829|
+--------------------------------------------------------------+
Setting the multigrid structure.
+-------------------------------------------+
|  MG Level|       CVs|Aggl. Rate|       CFL|
+-------------------------------------------+
|         0|      5233|    1/1.00|        10|
|         1|      1533|    1/3.41|   8.11871|
|         2|       443|    1/3.46|    6.5465|
+-------------------------------------------+
Finding max control volume width.
Wetted area = 2.03922 m.
Area projection in the x-plane = 0.119982 m, y-plane = 0.999845 m.
Max. coordinate in the x-direction = 1 m, y-direction = 0.0600008 m.
Min. coordinate in the x-direction = 0 m, y-direction = -0.060013 m.
Checking if Euler & Symmetry markers are straight/plane:
Boundary marker airfoil is NOT a single straight.
Computing wall distances.

-------------------- Solver Preprocessing ( Zone 0 ) --------------------
Inviscid flow: Computing density based on free-stream
temperature and pressure using the ideal gas law.
Force coefficients computed using free-stream values.

-- Models:
+------------------------------------------------------------------------------+
|          Viscosity Model|        Conductivity Model|              Fluid Model|
+------------------------------------------------------------------------------+
|                        -|                         -|             STANDARD_AIR|
+------------------------------------------------------------------------------+
-- Fluid properties:
+------------------------------------------------------------------------------+
|                  Name|    Dim. value|    Ref. value|      Unit|Non-dim. value|
+------------------------------------------------------------------------------+
|          Gas Constant|       287.058|       287.058|  N.m/kg.K|             1|
|      Spec. Heat Ratio|             -|             -|         -|           1.4|
+------------------------------------------------------------------------------+
-- Initial and free-stream conditions:
+------------------------------------------------------------------------------+
|                  Name|    Dim. value|    Ref. value|      Unit|Non-dim. value|
+------------------------------------------------------------------------------+
|       Static Pressure|        101325|        101325|        Pa|             1|
|               Density|       1.22498|       1.22498|    kg/m^3|             1|
|           Temperature|        288.15|        288.15|         K|             1|
|          Total Energy|        208092|       82715.8|   m^2/s^2|       2.51575|
|            Velocity-X|       51.0426|       287.603|       m/s|      0.177476|
|            Velocity-Y|     -0.445442|       287.603|       m/s|   -0.00154881|
|    Velocity Magnitude|       51.0446|       287.603|       m/s|      0.177482|
+------------------------------------------------------------------------------+
|           Mach Number|             -|             -|         -|          0.15|
+------------------------------------------------------------------------------+
Initialize Jacobian structure (Euler). MG level: 0.
Initialize Jacobian structure (Euler). MG level: 1.
Initialize Jacobian structure (Euler). MG level: 2.

------------------- Numerics Preprocessing ( Zone 0 ) -------------------

----------------- Integration Preprocessing ( Zone 0 ) ------------------

------------------- Iteration Preprocessing ( Zone 0 ) ------------------
Euler/Navier-Stokes/RANS fluid iteration.

------------------------------ Begin Solver -----------------------------

Simulation Run using the Single-zone Driver
+----------------------------------------------------------------+
|  Inner_Iter|    rms[Rho]|   rms[RhoE]|          CL|          CD|
+----------------------------------------------------------------+
|           0|   -4.317678|   -3.771660|   -0.368634|    0.954684|
|           1|   -4.441080|   -3.888068|    0.044181|   -0.061877|
|           2|   -4.553438|   -4.003730|    0.092701|   -0.171501|
|           3|   -4.542158|   -3.986169|    0.008243|    0.003657|
|           4|   -4.470992|   -3.922299|   -0.097763|    0.118326|
|           5|   -4.577132|   -4.027533|   -0.072273|    0.056934|
|           6|   -4.559548|   -4.008868|    0.006012|   -0.046447|
|           7|   -4.675859|   -4.128308|    0.000447|   -0.034756|
|           8|   -4.746877|   -4.195737|   -0.046664|    0.041480|
|           9|   -4.815985|   -4.268583|   -0.055861|    0.039448|
|          10|   -5.032024|   -4.479651|   -0.036077|   -0.020647|
|          11|   -4.982693|   -4.433861|   -0.027335|   -0.025805|
|          12|   -5.225844|   -4.677628|   -0.036570|    0.016650|
|          13|   -5.196376|   -4.645097|   -0.047022|    0.023696|
|          14|   -5.307712|   -4.761039|   -0.047805|   -0.008277|
|          15|   -5.454794|   -4.901705|   -0.042854|   -0.018116|
|          16|   -5.439951|   -4.892148|   -0.040297|    0.004827|
|          17|   -5.679875|   -5.130146|   -0.042822|    0.015711|
|          18|   -5.634688|   -5.084999|   -0.047462|    0.000032|
|          19|   -5.783792|   -5.238705|   -0.049393|   -0.010738|
|          20|   -5.800733|   -5.252536|   -0.046929|   -0.001317|
|          21|   -5.846528|   -5.302408|   -0.043976|    0.007786|
|          22|   -5.939616|   -5.390446|   -0.045315|    0.002404|
|          23|   -5.860387|   -5.315522|   -0.049580|   -0.004422|
|          24|   -6.020784|   -5.474522|   -0.050760|   -0.001679|
|          25|   -5.914263|   -5.368177|   -0.047683|    0.003049|
|          26|   -6.048244|   -5.505233|   -0.045956|    0.001688|
|          27|   -6.035510|   -5.490069|   -0.048486|   -0.001638|
|          28|   -6.055258|   -5.513302|   -0.051264|   -0.001099|
|          29|   -6.162821|   -5.622617|   -0.050511|    0.001195|
|          30|   -6.131840|   -5.591782|   -0.048402|    0.001022|
|          31|   -6.245169|   -5.707796|   -0.048495|   -0.000714|
|          32|   -6.242943|   -5.702057|   -0.050368|   -0.000940|
|          33|   -6.274137|   -5.737619|   -0.051297|    0.000276|
|          34|   -6.324350|   -5.791584|   -0.050495|    0.000761|
|          35|   -6.332300|   -5.798309|   -0.049623|   -0.000026|
|          36|   -6.368800|   -5.833721|   -0.049933|   -0.000676|
|          37|   -6.383075|   -5.847493|   -0.050815|   -0.000378|
|          38|   -6.396880|   -5.863117|   -0.051217|    0.000255|
|          39|   -6.416246|   -5.883431|   -0.050898|    0.000319|
|          40|   -6.431111|   -5.898001|   -0.050579|   -0.000125|
|          41|   -6.450659|   -5.917520|   -0.050803|   -0.000363|
|          42|   -6.464121|   -5.931121|   -0.051298|   -0.000147|
|          43|   -6.482572|   -5.949864|   -0.051554|    0.000105|
|          44|   -6.509179|   -5.976385|   -0.051509|    0.000061|
|          45|   -6.526828|   -5.993598|   -0.051485|   -0.000135|
|          46|   -6.548969|   -6.016063|   -0.051697|   -0.000191|
|          47|   -6.572248|   -6.039410|   -0.052022|   -0.000082|
|          48|   -6.590925|   -6.057558|   -0.052225|   -0.000013|
|          49|   -6.613987|   -6.080950|   -0.052291|   -0.000071|
|          50|   -6.631750|   -6.099110|   -0.052355|   -0.000154|
|          51|   -6.647620|   -6.114906|   -0.052506|   -0.000152|
|          52|   -6.668904|   -6.135950|   -0.052707|   -0.000097|
|          53|   -6.688906|   -6.155415|   -0.052871|   -0.000076|
|          54|   -6.706461|   -6.172806|   -0.052968|   -0.000115|
|          55|   -6.723248|   -6.189709|   -0.053041|   -0.000156|
|          56|   -6.740062|   -6.206333|   -0.053141|   -0.000149|
|          57|   -6.759104|   -6.224918|   -0.053271|   -0.000114|
|          58|   -6.779299|   -6.244570|   -0.053404|   -0.000100|
|          59|   -6.798740|   -6.263490|   -0.053516|   -0.000120|
|          60|   -6.817798|   -6.282041|   -0.053612|   -0.000141|
|          61|   -6.837299|   -6.300994|   -0.053709|   -0.000138|
|          62|   -6.857573|   -6.320708|   -0.053821|   -0.000120|
|          63|   -6.878694|   -6.341257|   -0.053944|   -0.000112|
|          64|   -6.900588|   -6.362576|   -0.054067|   -0.000121|
|          65|   -6.923309|   -6.384833|   -0.054183|   -0.000131|
|          66|   -6.946364|   -6.407645|   -0.054294|   -0.000131|
|          67|   -6.969105|   -6.430349|   -0.054403|   -0.000126|
|          68|   -6.991817|   -6.453150|   -0.054515|   -0.000125|
|          69|   -7.014522|   -6.476088|   -0.054628|   -0.000130|
|          70|   -7.036925|   -6.499030|   -0.054738|   -0.000135|
|          71|   -7.059172|   -6.522227|   -0.054840|   -0.000136|
|          72|   -7.081362|   -6.545644|   -0.054936|   -0.000135|
|          73|   -7.103544|   -6.569084|   -0.055030|   -0.000136|
|          74|   -7.125814|   -6.592531|   -0.055123|   -0.000140|
|          75|   -7.148150|   -6.616078|   -0.055216|   -0.000144|
|          76|   -7.170758|   -6.640122|   -0.055304|   -0.000144|
|          77|   -7.193788|   -6.664869|   -0.055388|   -0.000143|
|          78|   -7.216802|   -6.689766|   -0.055470|   -0.000144|
|          79|   -7.239225|   -6.714135|   -0.055554|   -0.000146|
|          80|   -7.260940|   -6.737898|   -0.055638|   -0.000148|
|          81|   -7.282214|   -6.761433|   -0.055721|   -0.000147|
|          82|   -7.303344|   -6.785085|   -0.055803|   -0.000147|
|          83|   -7.324517|   -6.809020|   -0.055884|   -0.000147|
|          84|   -7.345908|   -6.833410|   -0.055967|   -0.000148|
|          85|   -7.367664|   -6.858430|   -0.056051|   -0.000148|
|          86|   -7.389809|   -6.884093|   -0.056135|   -0.000148|
|          87|   -7.412219|   -6.910225|   -0.056218|   -0.000148|
|          88|   -7.434617|   -6.936488|   -0.056300|   -0.000149|
|          89|   -7.456602|   -6.962390|   -0.056381|   -0.000149|
|          90|   -7.477788|   -6.987399|   -0.056463|   -0.000150|
|          91|   -7.497941|   -7.011103|   -0.056543|   -0.000150|
|          92|   -7.517055|   -7.033375|   -0.056620|   -0.000151|
|          93|   -7.535338|   -7.054434|   -0.056696|   -0.000152|
|          94|   -7.553150|   -7.074764|   -0.056771|   -0.000153|
|          95|   -7.570935|   -7.094990|   -0.056844|   -0.000154|
|          96|   -7.589083|   -7.115669|   -0.056915|   -0.000154|
|          97|   -7.607756|   -7.137086|   -0.056985|   -0.000155|
|          98|   -7.626874|   -7.159215|   -0.057053|   -0.000156|
|          99|   -7.646233|   -7.181849|   -0.057119|   -0.000157|
|         100|   -7.665607|   -7.204695|   -0.057184|   -0.000158|
|         101|   -7.684756|   -7.227401|   -0.057248|   -0.000159|
|         102|   -7.703465|   -7.249631|   -0.057310|   -0.000160|
|         103|   -7.721630|   -7.271207|   -0.057372|   -0.000161|
|         104|   -7.739313|   -7.292203|   -0.057432|   -0.000161|
|         105|   -7.756692|   -7.312882|   -0.057491|   -0.000162|
|         106|   -7.773952|   -7.333547|   -0.057550|   -0.000162|
|         107|   -7.791195|   -7.354401|   -0.057608|   -0.000163|
|         108|   -7.808400|   -7.375465|   -0.057665|   -0.000163|
|         109|   -7.825433|   -7.396551|   -0.057720|   -0.000164|
|         110|   -7.842091|   -7.417310|   -0.057775|   -0.000164|
|         111|   -7.858169|   -7.437343|   -0.057829|   -0.000165|
|         112|   -7.873524|   -7.456324|   -0.057881|   -0.000165|
|         113|   -7.888131|   -7.474124|   -0.057932|   -0.000165|
|         114|   -7.902095|   -7.490856|   -0.057981|   -0.000166|
|         115|   -7.915616|   -7.506839|   -0.058029|   -0.000166|
|         116|   -7.928926|   -7.522498|   -0.058075|   -0.000167|
|         117|   -7.942226|   -7.538244|   -0.058120|   -0.000167|
|         118|   -7.955644|   -7.554380|   -0.058164|   -0.000168|
|         119|   -7.969209|   -7.571041|   -0.058205|   -0.000168|
|         120|   -7.982854|   -7.588173|   -0.058246|   -0.000169|
|         121|   -7.996441|   -7.605572|   -0.058285|   -0.000169|
|         122|   -8.009816|   -7.622965|   -0.058323|   -0.000170|
|         123|   -8.022850|   -7.640101|   -0.058360|   -0.000170|
|         124|   -8.035469|   -7.656807|   -0.058395|   -0.000171|
|         125|   -8.047654|   -7.673012|   -0.058430|   -0.000171|
|         126|   -8.059424|   -7.688721|   -0.058464|   -0.000172|
|         127|   -8.070815|   -7.703977|   -0.058497|   -0.000172|
|         128|   -8.081854|   -7.718806|   -0.058529|   -0.000173|
|         129|   -8.092546|   -7.733189|   -0.058560|   -0.000173|
|         130|   -8.102877|   -7.747053|   -0.058590|   -0.000174|
|         131|   -8.112823|   -7.760294|   -0.058620|   -0.000174|
|         132|   -8.122370|   -7.772810|   -0.058649|   -0.000174|
|         133|   -8.131527|   -7.784547|   -0.058678|   -0.000175|
|         134|   -8.140337|   -7.795525|   -0.058706|   -0.000175|
|         135|   -8.148871|   -7.805848|   -0.058733|   -0.000175|
|         136|   -8.157222|   -7.815680|   -0.058759|   -0.000175|
|         137|   -8.165482|   -7.825216|   -0.058785|   -0.000176|
|         138|   -8.173735|   -7.834638|   -0.058810|   -0.000176|
|         139|   -8.182037|   -7.844087|   -0.058835|   -0.000176|
|         140|   -8.190415|   -7.853648|   -0.058859|   -0.000176|
|         141|   -8.198869|   -7.863342|   -0.058883|   -0.000177|
|         142|   -8.207374|   -7.873146|   -0.058906|   -0.000177|
|         143|   -8.215899|   -7.883008|   -0.058928|   -0.000177|
|         144|   -8.224409|   -7.892868|   -0.058950|   -0.000177|
|         145|   -8.232876|   -7.902671|   -0.058972|   -0.000177|
|         146|   -8.241280|   -7.912379|   -0.058993|   -0.000178|
|         147|   -8.249614|   -7.921961|   -0.059014|   -0.000178|
|         148|   -8.257870|   -7.931395|   -0.059034|   -0.000178|
|         149|   -8.266046|   -7.940654|   -0.059054|   -0.000178|
|         150|   -8.274134|   -7.949705|   -0.059074|   -0.000178|
|         151|   -8.282128|   -7.958509|   -0.059093|   -0.000178|
|         152|   -8.290015|   -7.967031|   -0.059112|   -0.000179|
|         153|   -8.297789|   -7.975243|   -0.059131|   -0.000179|
|         154|   -8.305443|   -7.983140|   -0.059149|   -0.000179|
|         155|   -8.312982|   -7.990737|   -0.059167|   -0.000179|
|         156|   -8.320413|   -7.998078|   -0.059185|   -0.000179|
|         157|   -8.327752|   -8.005218|   -0.059202|   -0.000179|
|         158|   -8.335017|   -8.012224|   -0.059219|   -0.000179|
|         159|   -8.342228|   -8.019160|   -0.059235|   -0.000179|
|         160|   -8.349397|   -8.026074|   -0.059252|   -0.000179|
|         161|   -8.356536|   -8.033002|   -0.059268|   -0.000179|
|         162|   -8.363647|   -8.039956|   -0.059283|   -0.000180|
|         163|   -8.370727|   -8.046935|   -0.059298|   -0.000180|
|         164|   -8.377770|   -8.053924|   -0.059313|   -0.000180|
|         165|   -8.384766|   -8.060902|   -0.059328|   -0.000180|
|         166|   -8.391705|   -8.067851|   -0.059342|   -0.000180|
|         167|   -8.398579|   -8.074753|   -0.059357|   -0.000180|
|         168|   -8.405382|   -8.081596|   -0.059371|   -0.000180|
|         169|   -8.412110|   -8.088374|   -0.059384|   -0.000180|
|         170|   -8.418759|   -8.095083|   -0.059398|   -0.000180|
|         171|   -8.425331|   -8.101722|   -0.059411|   -0.000180|
|         172|   -8.431823|   -8.108290|   -0.059424|   -0.000180|
|         173|   -8.438237|   -8.114787|   -0.059437|   -0.000180|
|         174|   -8.444574|   -8.121213|   -0.059449|   -0.000180|
|         175|   -8.450834|   -8.127571|   -0.059462|   -0.000180|
|         176|   -8.457021|   -8.133867|   -0.059474|   -0.000180|
|         177|   -8.463138|   -8.140111|   -0.059486|   -0.000180|
|         178|   -8.469190|   -8.146316|   -0.059498|   -0.000180|
|         179|   -8.475184|   -8.152500|   -0.059510|   -0.000180|
|         180|   -8.481126|   -8.158680|   -0.059521|   -0.000180|
|         181|   -8.487022|   -8.164875|   -0.059532|   -0.000180|
|         182|   -8.492879|   -8.171099|   -0.059543|   -0.000180|
|         183|   -8.498701|   -8.177364|   -0.059554|   -0.000180|
|         184|   -8.504491|   -8.183676|   -0.059565|   -0.000180|
|         185|   -8.510250|   -8.190036|   -0.059575|   -0.000180|
|         186|   -8.515978|   -8.196441|   -0.059585|   -0.000180|
|         187|   -8.521674|   -8.202886|   -0.059595|   -0.000180|
|         188|   -8.527337|   -8.209361|   -0.059605|   -0.000180|
|         189|   -8.532963|   -8.215859|   -0.059615|   -0.000180|
|         190|   -8.538552|   -8.222371|   -0.059624|   -0.000180|
|         191|   -8.544103|   -8.228889|   -0.059634|   -0.000180|
|         192|   -8.549614|   -8.235409|   -0.059643|   -0.000180|
|         193|   -8.555088|   -8.241926|   -0.059652|   -0.000180|
|         194|   -8.560524|   -8.248438|   -0.059661|   -0.000180|
|         195|   -8.565925|   -8.254945|   -0.059669|   -0.000180|
|         196|   -8.571294|   -8.261449|   -0.059678|   -0.000180|
|         197|   -8.576633|   -8.267954|   -0.059686|   -0.000180|
|         198|   -8.581946|   -8.274464|   -0.059694|   -0.000180|
|         199|   -8.587238|   -8.280985|   -0.059702|   -0.000180|
|         200|   -8.592513|   -8.287524|   -0.059710|   -0.000180|
|         201|   -8.597774|   -8.294087|   -0.059718|   -0.000180|
|         202|   -8.603026|   -8.300683|   -0.059726|   -0.000180|
|         203|   -8.608274|   -8.307318|   -0.059733|   -0.000180|
|         204|   -8.613521|   -8.313997|   -0.059741|   -0.000180|
|         205|   -8.618771|   -8.320727|   -0.059748|   -0.000180|
|         206|   -8.624027|   -8.327510|   -0.059755|   -0.000180|
|         207|   -8.629291|   -8.334347|   -0.059762|   -0.000180|
|         208|   -8.634565|   -8.341240|   -0.059769|   -0.000179|
|         209|   -8.639851|   -8.348187|   -0.059776|   -0.000179|
|         210|   -8.645150|   -8.355186|   -0.059782|   -0.000179|
|         211|   -8.650464|   -8.362233|   -0.059789|   -0.000179|
|         212|   -8.655791|   -8.369325|   -0.059795|   -0.000179|
|         213|   -8.661135|   -8.376458|   -0.059802|   -0.000179|
|         214|   -8.666495|   -8.383630|   -0.059808|   -0.000179|
|         215|   -8.671872|   -8.390837|   -0.059814|   -0.000179|
|         216|   -8.677269|   -8.398077|   -0.059820|   -0.000179|
|         217|   -8.682685|   -8.405348|   -0.059826|   -0.000179|
|         218|   -8.688123|   -8.412652|   -0.059831|   -0.000179|
|         219|   -8.693585|   -8.419986|   -0.059837|   -0.000179|
|         220|   -8.699073|   -8.427354|   -0.059842|   -0.000179|
|         221|   -8.704588|   -8.434756|   -0.059848|   -0.000179|
|         222|   -8.710133|   -8.442195|   -0.059853|   -0.000179|
|         223|   -8.715710|   -8.449672|   -0.059858|   -0.000179|
|         224|   -8.721321|   -8.457190|   -0.059864|   -0.000179|
|         225|   -8.726968|   -8.464752|   -0.059869|   -0.000179|
|         226|   -8.732653|   -8.472359|   -0.059873|   -0.000179|
|         227|   -8.738377|   -8.480012|   -0.059878|   -0.000179|
|         228|   -8.744141|   -8.487712|   -0.059883|   -0.000179|
|         229|   -8.749947|   -8.495460|   -0.059888|   -0.000179|
|         230|   -8.755796|   -8.503256|   -0.059892|   -0.000179|
|         231|   -8.761688|   -8.511099|   -0.059897|   -0.000178|
|         232|   -8.767623|   -8.518989|   -0.059901|   -0.000178|
|         233|   -8.773603|   -8.526924|   -0.059906|   -0.000178|
|         234|   -8.779627|   -8.534904|   -0.059910|   -0.000178|
|         235|   -8.785695|   -8.542926|   -0.059914|   -0.000178|
|         236|   -8.791808|   -8.550989|   -0.059918|   -0.000178|
|         237|   -8.797966|   -8.559093|   -0.059922|   -0.000178|
|         238|   -8.804170|   -8.567237|   -0.059926|   -0.000178|
|         239|   -8.810419|   -8.575419|   -0.059930|   -0.000178|
|         240|   -8.816713|   -8.583639|   -0.059934|   -0.000178|
|         241|   -8.823054|   -8.591897|   -0.059937|   -0.000178|
|         242|   -8.829442|   -8.600194|   -0.059941|   -0.000178|
|         243|   -8.835877|   -8.608529|   -0.059945|   -0.000178|
|         244|   -8.842359|   -8.616904|   -0.059948|   -0.000178|
|         245|   -8.848890|   -8.625320|   -0.059952|   -0.000178|
|         246|   -8.855470|   -8.633776|   -0.059955|   -0.000178|
|         247|   -8.862099|   -8.642273|   -0.059958|   -0.000178|
|         248|   -8.868779|   -8.650813|   -0.059962|   -0.000178|
|         249|   -8.875508|   -8.659396|   -0.059965|   -0.000178|
|         250|   -8.882288|   -8.668022|   -0.059968|   -0.000178|
+-----------------------------------------------------------------------+
|        File Writing Summary       |              Filename             |
+-----------------------------------------------------------------------+
|SU2 restart                        |restart_flow.dat                   |
|Paraview                           |flow.vtu                           |
|Paraview surface                   |surface_flow.vtu                   |
|CSV file                           |surface_flow.csv                   |
+-----------------------------------------------------------------------+
+----------------------------------------------------------------+
|  Inner_Iter|    rms[Rho]|   rms[RhoE]|          CL|          CD|
+----------------------------------------------------------------+
|         251|   -8.889119|   -8.676691|   -0.059971|   -0.000178|
|         252|   -8.896001|   -8.685403|   -0.059974|   -0.000178|
|         253|   -8.902935|   -8.694157|   -0.059977|   -0.000178|
|         254|   -8.909919|   -8.702953|   -0.059980|   -0.000178|
|         255|   -8.916955|   -8.711791|   -0.059983|   -0.000178|
|         256|   -8.924042|   -8.720670|   -0.059986|   -0.000177|
|         257|   -8.931181|   -8.729589|   -0.059988|   -0.000177|
|         258|   -8.938370|   -8.738546|   -0.059991|   -0.000177|
|         259|   -8.945610|   -8.747543|   -0.059994|   -0.000177|
|         260|   -8.952902|   -8.756577|   -0.059996|   -0.000177|
|         261|   -8.960244|   -8.765649|   -0.059999|   -0.000177|
|         262|   -8.967637|   -8.774759|   -0.060001|   -0.000177|
|         263|   -8.975080|   -8.783906|   -0.060004|   -0.000177|
|         264|   -8.982575|   -8.793090|   -0.060006|   -0.000177|
|         265|   -8.990120|   -8.802311|   -0.060009|   -0.000177|
|         266|   -8.997717|   -8.811570|   -0.060011|   -0.000177|
|         267|   -9.005364|   -8.820866|   -0.060013|   -0.000177|
|         268|   -9.013063|   -8.830200|   -0.060015|   -0.000177|
|         269|   -9.020813|   -8.839572|   -0.060018|   -0.000177|
|         270|   -9.028614|   -8.848983|   -0.060020|   -0.000177|
|         271|   -9.036466|   -8.858432|   -0.060022|   -0.000177|
|         272|   -9.044370|   -8.867919|   -0.060024|   -0.000177|
|         273|   -9.052325|   -8.877445|   -0.060026|   -0.000177|
|         274|   -9.060331|   -8.887009|   -0.060028|   -0.000177|
|         275|   -9.068389|   -8.896611|   -0.060030|   -0.000177|
|         276|   -9.076497|   -8.906250|   -0.060032|   -0.000177|
|         277|   -9.084657|   -8.915927|   -0.060034|   -0.000177|
|         278|   -9.092867|   -8.925640|   -0.060035|   -0.000177|
|         279|   -9.101128|   -8.935389|   -0.060037|   -0.000177|
|         280|   -9.109440|   -8.945174|   -0.060039|   -0.000177|
|         281|   -9.117801|   -8.954994|   -0.060041|   -0.000177|
|         282|   -9.126213|   -8.964848|   -0.060042|   -0.000177|
|         283|   -9.134676|   -8.974738|   -0.060044|   -0.000177|
|         284|   -9.143188|   -8.984661|   -0.060046|   -0.000177|
|         285|   -9.151749|   -8.994617|   -0.060047|   -0.000177|
|         286|   -9.160361|   -9.004607|   -0.060049|   -0.000177|
|         287|   -9.169021|   -9.014631|   -0.060050|   -0.000177|
|         288|   -9.177732|   -9.024688|   -0.060052|   -0.000177|
|         289|   -9.186491|   -9.034778|   -0.060053|   -0.000177|
|         290|   -9.195300|   -9.044901|   -0.060055|   -0.000177|
|         291|   -9.204158|   -9.055058|   -0.060056|   -0.000177|
|         292|   -9.213065|   -9.065247|   -0.060058|   -0.000177|
|         293|   -9.222021|   -9.075470|   -0.060059|   -0.000177|
|         294|   -9.231026|   -9.085726|   -0.060060|   -0.000177|
|         295|   -9.240080|   -9.096014|   -0.060062|   -0.000177|
|         296|   -9.249182|   -9.106335|   -0.060063|   -0.000177|
|         297|   -9.258333|   -9.116688|   -0.060064|   -0.000177|
|         298|   -9.267533|   -9.127074|   -0.060066|   -0.000177|
|         299|   -9.276780|   -9.137491|   -0.060067|   -0.000176|
|         300|   -9.286076|   -9.147939|   -0.060068|   -0.000176|
|         301|   -9.295420|   -9.158418|   -0.060069|   -0.000176|
|         302|   -9.304811|   -9.168928|   -0.060070|   -0.000176|
|         303|   -9.314250|   -9.179468|   -0.060071|   -0.000176|
|         304|   -9.323736|   -9.190037|   -0.060072|   -0.000176|
|         305|   -9.333270|   -9.200636|   -0.060074|   -0.000176|
|         306|   -9.342850|   -9.211264|   -0.060075|   -0.000176|
|         307|   -9.352478|   -9.221921|   -0.060076|   -0.000176|
|         308|   -9.362152|   -9.232606|   -0.060077|   -0.000176|
|         309|   -9.371872|   -9.243319|   -0.060078|   -0.000176|
|         310|   -9.381639|   -9.254060|   -0.060079|   -0.000176|
|         311|   -9.391452|   -9.264829|   -0.060080|   -0.000176|
|         312|   -9.401312|   -9.275625|   -0.060081|   -0.000176|
|         313|   -9.411217|   -9.286448|   -0.060082|   -0.000176|
|         314|   -9.421168|   -9.297298|   -0.060082|   -0.000176|
|         315|   -9.431164|   -9.308175|   -0.060083|   -0.000176|
|         316|   -9.441207|   -9.319078|   -0.060084|   -0.000176|
|         317|   -9.451294|   -9.330007|   -0.060085|   -0.000176|
|         318|   -9.461427|   -9.340962|   -0.060086|   -0.000176|
|         319|   -9.471605|   -9.351943|   -0.060087|   -0.000176|
|         320|   -9.481827|   -9.362948|   -0.060087|   -0.000176|
|         321|   -9.492095|   -9.373979|   -0.060088|   -0.000176|
|         322|   -9.502407|   -9.385033|   -0.060089|   -0.000176|
|         323|   -9.512764|   -9.396112|   -0.060090|   -0.000176|
|         324|   -9.523164|   -9.407214|   -0.060091|   -0.000176|
|         325|   -9.533609|   -9.418340|   -0.060091|   -0.000176|
|         326|   -9.544098|   -9.429488|   -0.060092|   -0.000176|
|         327|   -9.554631|   -9.440658|   -0.060093|   -0.000176|
|         328|   -9.565207|   -9.451851|   -0.060093|   -0.000176|
|         329|   -9.575827|   -9.463065|   -0.060094|   -0.000176|
|         330|   -9.586490|   -9.474300|   -0.060095|   -0.000176|
|         331|   -9.597195|   -9.485555|   -0.060095|   -0.000176|
|         332|   -9.607944|   -9.496832|   -0.060096|   -0.000176|
|         333|   -9.618736|   -9.508128|   -0.060097|   -0.000176|
|         334|   -9.629570|   -9.519443|   -0.060097|   -0.000176|
|         335|   -9.640446|   -9.530778|   -0.060098|   -0.000176|
|         336|   -9.651365|   -9.542131|   -0.060098|   -0.000176|
|         337|   -9.662326|   -9.553502|   -0.060099|   -0.000176|
|         338|   -9.673328|   -9.564892|   -0.060100|   -0.000176|
|         339|   -9.684373|   -9.576298|   -0.060100|   -0.000176|
|         340|   -9.695459|   -9.587721|   -0.060101|   -0.000176|
|         341|   -9.706586|   -9.599161|   -0.060101|   -0.000176|
|         342|   -9.717754|   -9.610617|   -0.060102|   -0.000176|
|         343|   -9.728964|   -9.622087|   -0.060102|   -0.000176|
|         344|   -9.740214|   -9.633573|   -0.060103|   -0.000176|
|         345|   -9.751505|   -9.645073|   -0.060103|   -0.000176|
|         346|   -9.762837|   -9.656586|   -0.060104|   -0.000176|
|         347|   -9.774209|   -9.668113|   -0.060104|   -0.000176|
|         348|   -9.785620|   -9.679652|   -0.060105|   -0.000176|
|         349|   -9.797072|   -9.691204|   -0.060105|   -0.000176|
|         350|   -9.808564|   -9.702767|   -0.060106|   -0.000176|
|         351|   -9.820095|   -9.714341|   -0.060106|   -0.000176|
|         352|   -9.831665|   -9.725925|   -0.060107|   -0.000176|
|         353|   -9.843275|   -9.737520|   -0.060107|   -0.000176|
|         354|   -9.854924|   -9.749123|   -0.060107|   -0.000176|
|         355|   -9.866611|   -9.760736|   -0.060108|   -0.000176|
|         356|   -9.878337|   -9.772356|   -0.060108|   -0.000176|
|         357|   -9.890102|   -9.783984|   -0.060109|   -0.000176|
|         358|   -9.901904|   -9.795618|   -0.060109|   -0.000176|
|         359|   -9.913745|   -9.807259|   -0.060109|   -0.000176|
|         360|   -9.925623|   -9.818906|   -0.060110|   -0.000176|
|         361|   -9.937539|   -9.830557|   -0.060110|   -0.000176|
|         362|   -9.949493|   -9.842212|   -0.060110|   -0.000176|
|         363|   -9.961483|   -9.853871|   -0.060111|   -0.000176|
|         364|   -9.973511|   -9.865533|   -0.060111|   -0.000176|
|         365|   -9.985575|   -9.877197|   -0.060111|   -0.000176|
|         366|   -9.997675|   -9.888862|   -0.060112|   -0.000176|
|         367|  -10.009812|   -9.900528|   -0.060112|   -0.000176|
|         368|  -10.021985|   -9.912194|   -0.060112|   -0.000176|
|         369|  -10.034194|   -9.923859|   -0.060113|   -0.000176|
|         370|  -10.046438|   -9.935522|   -0.060113|   -0.000176|
|         371|  -10.058717|   -9.947183|   -0.060113|   -0.000176|
|         372|  -10.071031|   -9.958841|   -0.060114|   -0.000176|
|         373|  -10.083380|   -9.970495|   -0.060114|   -0.000176|
|         374|  -10.095764|   -9.982144|   -0.060114|   -0.000176|
|         375|  -10.108182|   -9.993788|   -0.060115|   -0.000176|
|         376|  -10.120633|  -10.005426|   -0.060115|   -0.000176|
|         377|  -10.133119|  -10.017057|   -0.060115|   -0.000176|
|         378|  -10.145637|  -10.028679|   -0.060115|   -0.000176|
|         379|  -10.158189|  -10.040294|   -0.060116|   -0.000176|
|         380|  -10.170774|  -10.051899|   -0.060116|   -0.000176|
|         381|  -10.183391|  -10.063493|   -0.060116|   -0.000176|
|         382|  -10.196040|  -10.075077|   -0.060116|   -0.000176|
|         383|  -10.208721|  -10.086649|   -0.060117|   -0.000176|
|         384|  -10.221433|  -10.098208|   -0.060117|   -0.000176|
|         385|  -10.234177|  -10.109753|   -0.060117|   -0.000176|
|         386|  -10.246951|  -10.121284|   -0.060117|   -0.000176|
|         387|  -10.259756|  -10.132800|   -0.060118|   -0.000176|
|         388|  -10.272591|  -10.144301|   -0.060118|   -0.000176|
|         389|  -10.285455|  -10.155783|   -0.060118|   -0.000176|
|         390|  -10.298349|  -10.167249|   -0.060118|   -0.000176|
|         391|  -10.311272|  -10.178696|   -0.060118|   -0.000176|
|         392|  -10.324223|  -10.190123|   -0.060119|   -0.000176|
|         393|  -10.337203|  -10.201530|   -0.060119|   -0.000176|
|         394|  -10.350210|  -10.212917|   -0.060119|   -0.000176|
|         395|  -10.363244|  -10.224281|   -0.060119|   -0.000176|
|         396|  -10.376305|  -10.235623|   -0.060119|   -0.000176|
|         397|  -10.389392|  -10.246941|   -0.060120|   -0.000176|
|         398|  -10.402505|  -10.258234|   -0.060120|   -0.000176|
|         399|  -10.415644|  -10.269503|   -0.060120|   -0.000176|
|         400|  -10.428807|  -10.280746|   -0.060120|   -0.000176|
|         401|  -10.441994|  -10.291962|   -0.060120|   -0.000176|
|         402|  -10.455205|  -10.303151|   -0.060120|   -0.000176|
|         403|  -10.468440|  -10.314311|   -0.060121|   -0.000176|
|         404|  -10.481697|  -10.325443|   -0.060121|   -0.000176|
|         405|  -10.494976|  -10.336545|   -0.060121|   -0.000176|
|         406|  -10.508276|  -10.347616|   -0.060121|   -0.000176|
|         407|  -10.521598|  -10.358657|   -0.060121|   -0.000176|
|         408|  -10.534939|  -10.369666|   -0.060121|   -0.000176|
|         409|  -10.548301|  -10.380643|   -0.060122|   -0.000176|
|         410|  -10.561681|  -10.391586|   -0.060122|   -0.000176|
|         411|  -10.575079|  -10.402496|   -0.060122|   -0.000176|
|         412|  -10.588495|  -10.413372|   -0.060122|   -0.000176|
|         413|  -10.601927|  -10.424214|   -0.060122|   -0.000176|
|         414|  -10.615376|  -10.435019|   -0.060122|   -0.000176|
|         415|  -10.628840|  -10.445790|   -0.060122|   -0.000176|
|         416|  -10.642319|  -10.456524|   -0.060123|   -0.000176|
|         417|  -10.655811|  -10.467221|   -0.060123|   -0.000176|
|         418|  -10.669317|  -10.477882|   -0.060123|   -0.000176|
|         419|  -10.682834|  -10.488504|   -0.060123|   -0.000176|
|         420|  -10.696363|  -10.499089|   -0.060123|   -0.000176|
|         421|  -10.709902|  -10.509635|   -0.060123|   -0.000176|
|         422|  -10.723451|  -10.520142|   -0.060123|   -0.000176|
|         423|  -10.737008|  -10.530610|   -0.060123|   -0.000176|
|         424|  -10.750573|  -10.541039|   -0.060124|   -0.000176|
|         425|  -10.764145|  -10.551428|   -0.060124|   -0.000176|
|         426|  -10.777722|  -10.561778|   -0.060124|   -0.000176|
|         427|  -10.791305|  -10.572087|   -0.060124|   -0.000176|
|         428|  -10.804890|  -10.582356|   -0.060124|   -0.000176|
|         429|  -10.818479|  -10.592585|   -0.060124|   -0.000176|
|         430|  -10.832068|  -10.602773|   -0.060124|   -0.000176|
|         431|  -10.845659|  -10.612921|   -0.060124|   -0.000176|
|         432|  -10.859249|  -10.623028|   -0.060124|   -0.000176|
|         433|  -10.872837|  -10.633094|   -0.060124|   -0.000176|
|         434|  -10.886422|  -10.643120|   -0.060125|   -0.000176|
|         435|  -10.900003|  -10.653105|   -0.060125|   -0.000176|
|         436|  -10.913578|  -10.663050|   -0.060125|   -0.000176|
|         437|  -10.927148|  -10.672955|   -0.060125|   -0.000176|
|         438|  -10.940709|  -10.682819|   -0.060125|   -0.000176|
|         439|  -10.954262|  -10.692643|   -0.060125|   -0.000176|
|         440|  -10.967804|  -10.702427|   -0.060125|   -0.000176|
|         441|  -10.981335|  -10.712171|   -0.060125|   -0.000176|
|         442|  -10.994852|  -10.721876|   -0.060125|   -0.000176|
|         443|  -11.008356|  -10.731541|   -0.060125|   -0.000176|
|         444|  -11.021844|  -10.741168|   -0.060125|   -0.000176|
|         445|  -11.035315|  -10.750755|   -0.060126|   -0.000176|
|         446|  -11.048768|  -10.760304|   -0.060126|   -0.000176|
|         447|  -11.062201|  -10.769815|   -0.060126|   -0.000176|
|         448|  -11.075613|  -10.779289|   -0.060126|   -0.000176|
|         449|  -11.089002|  -10.788724|   -0.060126|   -0.000176|
|         450|  -11.102368|  -10.798123|   -0.060126|   -0.000176|
|         451|  -11.115707|  -10.807485|   -0.060126|   -0.000176|
|         452|  -11.129021|  -10.816811|   -0.060126|   -0.000176|
|         453|  -11.142306|  -10.826101|   -0.060126|   -0.000176|
|         454|  -11.155561|  -10.835356|   -0.060126|   -0.000176|
|         455|  -11.168785|  -10.844576|   -0.060126|   -0.000176|
|         456|  -11.181977|  -10.853763|   -0.060126|   -0.000176|
|         457|  -11.195134|  -10.862914|   -0.060126|   -0.000176|
|         458|  -11.208256|  -10.872034|   -0.060126|   -0.000176|
|         459|  -11.221341|  -10.881118|   -0.060126|   -0.000176|
|         460|  -11.234387|  -10.890173|   -0.060127|   -0.000176|
|         461|  -11.247394|  -10.899194|   -0.060127|   -0.000176|
|         462|  -11.260359|  -10.908185|   -0.060127|   -0.000176|
|         463|  -11.273281|  -10.917143|   -0.060127|   -0.000176|
|         464|  -11.286160|  -10.926074|   -0.060127|   -0.000176|
|         465|  -11.298993|  -10.934975|   -0.060127|   -0.000176|
|         466|  -11.311779|  -10.943845|   -0.060127|   -0.000176|
|         467|  -11.324517|  -10.952688|   -0.060127|   -0.000176|
|         468|  -11.337206|  -10.961504|   -0.060127|   -0.000176|
|         469|  -11.349843|  -10.970290|   -0.060127|   -0.000176|
|         470|  -11.362429|  -10.979051|   -0.060127|   -0.000176|
|         471|  -11.374962|  -10.987786|   -0.060127|   -0.000176|
|         472|  -11.387440|  -10.996495|   -0.060127|   -0.000176|
|         473|  -11.399863|  -11.005178|   -0.060127|   -0.000176|
|         474|  -11.412229|  -11.013838|   -0.060127|   -0.000176|
|         475|  -11.424538|  -11.022473|   -0.060127|   -0.000176|
|         476|  -11.436788|  -11.031086|   -0.060127|   -0.000176|
|         477|  -11.448978|  -11.039675|   -0.060127|   -0.000176|
|         478|  -11.461108|  -11.048243|   -0.060127|   -0.000176|
|         479|  -11.473176|  -11.056787|   -0.060128|   -0.000176|
|         480|  -11.485182|  -11.065311|   -0.060128|   -0.000176|
|         481|  -11.497126|  -11.073815|   -0.060128|   -0.000176|
|         482|  -11.509005|  -11.082299|   -0.060128|   -0.000176|
|         483|  -11.520820|  -11.090762|   -0.060128|   -0.000176|
|         484|  -11.532571|  -11.099207|   -0.060128|   -0.000176|
|         485|  -11.544255|  -11.107633|   -0.060128|   -0.000176|
|         486|  -11.555875|  -11.116042|   -0.060128|   -0.000176|
|         487|  -11.567427|  -11.124433|   -0.060128|   -0.000176|
|         488|  -11.578913|  -11.132806|   -0.060128|   -0.000176|
|         489|  -11.590332|  -11.141164|   -0.060128|   -0.000176|
|         490|  -11.601684|  -11.149505|   -0.060128|   -0.000176|
|         491|  -11.612969|  -11.157832|   -0.060128|   -0.000176|
|         492|  -11.624186|  -11.166142|   -0.060128|   -0.000176|
|         493|  -11.635336|  -11.174437|   -0.060128|   -0.000176|
|         494|  -11.646417|  -11.182717|   -0.060128|   -0.000176|
|         495|  -11.657433|  -11.190987|   -0.060128|   -0.000176|
|         496|  -11.668382|  -11.199244|   -0.060128|   -0.000176|
|         497|  -11.679262|  -11.207484|   -0.060128|   -0.000176|
|         498|  -11.690076|  -11.215713|   -0.060128|   -0.000176|
|         499|  -11.700825|  -11.223931|   -0.060128|   -0.000176|
|         500|  -11.711507|  -11.232137|   -0.060128|   -0.000176|
+-----------------------------------------------------------------------+
|        File Writing Summary       |              Filename             |
+-----------------------------------------------------------------------+
|SU2 restart                        |restart_flow.dat                   |
|Paraview                           |flow.vtu                           |
|Paraview surface                   |surface_flow.vtu                   |
|CSV file                           |surface_flow.csv                   |
+-----------------------------------------------------------------------+
+----------------------------------------------------------------+
|  Inner_Iter|    rms[Rho]|   rms[RhoE]|          CL|          CD|
+----------------------------------------------------------------+
|         501|  -11.722123|  -11.240331|   -0.060128|   -0.000176|
|         502|  -11.732674|  -11.248514|   -0.060128|   -0.000176|
|         503|  -11.743162|  -11.256686|   -0.060128|   -0.000176|
|         504|  -11.753587|  -11.264852|   -0.060128|   -0.000176|
|         505|  -11.763947|  -11.273004|   -0.060128|   -0.000176|
|         506|  -11.774244|  -11.281149|   -0.060128|   -0.000176|
|         507|  -11.784481|  -11.289284|   -0.060128|   -0.000176|
|         508|  -11.794657|  -11.297412|   -0.060128|   -0.000176|
|         509|  -11.804771|  -11.305530|   -0.060128|   -0.000176|
|         510|  -11.814826|  -11.313638|   -0.060129|   -0.000176|
|         511|  -11.824822|  -11.321740|   -0.060129|   -0.000176|
|         512|  -11.834763|  -11.329836|   -0.060129|   -0.000176|
|         513|  -11.844645|  -11.337924|   -0.060129|   -0.000176|
|         514|  -11.854473|  -11.346005|   -0.060129|   -0.000176|
|         515|  -11.864245|  -11.354080|   -0.060129|   -0.000176|
|         516|  -11.873963|  -11.362148|   -0.060129|   -0.000176|
|         517|  -11.883629|  -11.370208|   -0.060129|   -0.000176|
|         518|  -11.893246|  -11.378268|   -0.060129|   -0.000176|
|         519|  -11.902809|  -11.386319|   -0.060129|   -0.000176|
|         520|  -11.912323|  -11.394366|   -0.060129|   -0.000176|
|         521|  -11.921789|  -11.402405|   -0.060129|   -0.000176|
|         522|  -11.931208|  -11.410444|   -0.060129|   -0.000176|
|         523|  -11.940579|  -11.418475|   -0.060129|   -0.000176|
|         524|  -11.949907|  -11.426502|   -0.060129|   -0.000176|
|         525|  -11.959189|  -11.434526|   -0.060129|   -0.000176|
|         526|  -11.968430|  -11.442546|   -0.060129|   -0.000176|
|         527|  -11.977629|  -11.450564|   -0.060129|   -0.000176|
|         528|  -11.986789|  -11.458580|   -0.060129|   -0.000176|
|         529|  -11.995906|  -11.466589|   -0.060129|   -0.000176|
|         530|  -12.004986|  -11.474595|   -0.060129|   -0.000176|
|         531|  -12.014027|  -11.482601|   -0.060129|   -0.000176|
|         532|  -12.023035|  -11.490605|   -0.060129|   -0.000176|
|         533|  -12.032002|  -11.498601|   -0.060129|   -0.000176|
|         534|  -12.040936|  -11.506598|   -0.060129|   -0.000176|
|         535|  -12.049838|  -11.514592|   -0.060129|   -0.000176|
|         536|  -12.058706|  -11.522585|   -0.060129|   -0.000176|
|         537|  -12.067547|  -11.530577|   -0.060129|   -0.000176|
|         538|  -12.076356|  -11.538570|   -0.060129|   -0.000176|
|         539|  -12.085134|  -11.546558|   -0.060129|   -0.000176|
|         540|  -12.093885|  -11.554545|   -0.060129|   -0.000176|
|         541|  -12.102603|  -11.562528|   -0.060129|   -0.000176|
|         542|  -12.111299|  -11.570511|   -0.060129|   -0.000176|
|         543|  -12.119971|  -11.578497|   -0.060129|   -0.000176|
|         544|  -12.128618|  -11.586482|   -0.060129|   -0.000176|
|         545|  -12.137240|  -11.594465|   -0.060129|   -0.000176|
|         546|  -12.145836|  -11.602444|   -0.060129|   -0.000176|
|         547|  -12.154412|  -11.610424|   -0.060129|   -0.000176|
|         548|  -12.162970|  -11.618409|   -0.060129|   -0.000176|
|         549|  -12.171502|  -11.626388|   -0.060129|   -0.000176|
|         550|  -12.180014|  -11.634367|   -0.060129|   -0.000176|
|         551|  -12.188510|  -11.642348|   -0.060129|   -0.000176|
|         552|  -12.196988|  -11.650331|   -0.060129|   -0.000176|
|         553|  -12.205444|  -11.658309|   -0.060129|   -0.000176|
|         554|  -12.213884|  -11.666290|   -0.060129|   -0.000176|
|         555|  -12.222314|  -11.674277|   -0.060129|   -0.000176|
|         556|  -12.230724|  -11.682258|   -0.060129|   -0.000176|
|         557|  -12.239116|  -11.690238|   -0.060129|   -0.000176|
|         558|  -12.247496|  -11.698223|   -0.060129|   -0.000176|
|         559|  -12.255861|  -11.706204|   -0.060129|   -0.000176|
|         560|  -12.264211|  -11.714188|   -0.060129|   -0.000176|
|         561|  -12.272560|  -11.722181|   -0.060129|   -0.000176|
|         562|  -12.280876|  -11.730155|   -0.060129|   -0.000176|
|         563|  -12.289199|  -11.738149|   -0.060129|   -0.000176|
|         564|  -12.297500|  -11.746133|   -0.060129|   -0.000176|
|         565|  -12.305797|  -11.754123|   -0.060129|   -0.000176|
|         566|  -12.314082|  -11.762118|   -0.060129|   -0.000176|
|         567|  -12.322353|  -11.770108|   -0.060129|   -0.000176|
|         568|  -12.330619|  -11.778098|   -0.060129|   -0.000176|
|         569|  -12.338869|  -11.786086|   -0.060129|   -0.000176|
|         570|  -12.347124|  -11.794086|   -0.060129|   -0.000176|
|         571|  -12.355364|  -11.802086|   -0.060129|   -0.000176|
|         572|  -12.363588|  -11.810074|   -0.060129|   -0.000176|
|         573|  -12.371827|  -11.818085|   -0.060129|   -0.000176|
|         574|  -12.380036|  -11.826080|   -0.060129|   -0.000176|
|         575|  -12.388249|  -11.834082|   -0.060129|   -0.000176|
|         576|  -12.396458|  -11.842088|   -0.060129|   -0.000176|
|         577|  -12.404649|  -11.850087|   -0.060129|   -0.000176|
|         578|  -12.412846|  -11.858092|   -0.060129|   -0.000176|
|         579|  -12.421033|  -11.866104|   -0.060129|   -0.000176|
|         580|  -12.429218|  -11.874115|   -0.060130|   -0.000176|
|         581|  -12.437396|  -11.882126|   -0.060130|   -0.000176|
|         582|  -12.445568|  -11.890140|   -0.060130|   -0.000176|
|         583|  -12.453737|  -11.898147|   -0.060130|   -0.000176|
|         584|  -12.461904|  -11.906167|   -0.060130|   -0.000176|
|         585|  -12.470062|  -11.914183|   -0.060130|   -0.000176|
|         586|  -12.478233|  -11.922216|   -0.060130|   -0.000176|
|         587|  -12.486384|  -11.930231|   -0.060130|   -0.000176|
|         588|  -12.494534|  -11.938252|   -0.060130|   -0.000176|
|         589|  -12.502683|  -11.946277|   -0.060130|   -0.000176|
|         590|  -12.510831|  -11.954305|   -0.060130|   -0.000176|
|         591|  -12.518969|  -11.962326|   -0.060130|   -0.000176|
|         592|  -12.527126|  -11.970374|   -0.060130|   -0.000176|
|         593|  -12.535262|  -11.978399|   -0.060130|   -0.000176|
|         594|  -12.543389|  -11.986423|   -0.060130|   -0.000176|
|         595|  -12.551538|  -11.994472|   -0.060130|   -0.000176|
|         596|  -12.559661|  -12.002504|   -0.060130|   -0.000176|
|         597|  -12.567796|  -12.010546|   -0.060130|   -0.000176|
|         598|  -12.575924|  -12.018582|   -0.060130|   -0.000176|
|         599|  -12.584055|  -12.026628|   -0.060130|   -0.000176|
|         600|  -12.592191|  -12.034677|   -0.060130|   -0.000176|
|         601|  -12.600322|  -12.042729|   -0.060130|   -0.000176|
|         602|  -12.608433|  -12.050758|   -0.060130|   -0.000176|
|         603|  -12.616573|  -12.058830|   -0.060130|   -0.000176|
|         604|  -12.624694|  -12.066882|   -0.060130|   -0.000176|
|         605|  -12.632810|  -12.074920|   -0.060130|   -0.000176|
|         606|  -12.640945|  -12.082988|   -0.060130|   -0.000176|
|         607|  -12.649070|  -12.091052|   -0.060130|   -0.000176|
|         608|  -12.657208|  -12.099122|   -0.060130|   -0.000176|
|         609|  -12.665312|  -12.107167|   -0.060130|   -0.000176|
|         610|  -12.673438|  -12.115233|   -0.060130|   -0.000176|
|         611|  -12.681569|  -12.123310|   -0.060130|   -0.000176|
|         612|  -12.689684|  -12.131359|   -0.060130|   -0.000176|
|         613|  -12.697815|  -12.139440|   -0.060130|   -0.000176|
|         614|  -12.705938|  -12.147517|   -0.060130|   -0.000176|
|         615|  -12.714050|  -12.155571|   -0.060130|   -0.000176|
|         616|  -12.722177|  -12.163654|   -0.060130|   -0.000176|
|         617|  -12.730308|  -12.171737|   -0.060130|   -0.000176|
|         618|  -12.738428|  -12.179813|   -0.060130|   -0.000176|
|         619|  -12.746555|  -12.187888|   -0.060130|   -0.000176|
|         620|  -12.754696|  -12.195990|   -0.060130|   -0.000176|
|         621|  -12.762808|  -12.204065|   -0.060130|   -0.000176|
|         622|  -12.770928|  -12.212136|   -0.060130|   -0.000176|
|         623|  -12.779050|  -12.220233|   -0.060130|   -0.000176|
|         624|  -12.787180|  -12.228318|   -0.060130|   -0.000176|
|         625|  -12.795301|  -12.236403|   -0.060130|   -0.000176|
|         626|  -12.803445|  -12.244507|   -0.060130|   -0.000176|
|         627|  -12.811551|  -12.252586|   -0.060130|   -0.000176|
|         628|  -12.819691|  -12.260697|   -0.060130|   -0.000176|
|         629|  -12.827818|  -12.268784|   -0.060130|   -0.000176|
|         630|  -12.835949|  -12.276889|   -0.060130|   -0.000176|
|         631|  -12.844088|  -12.284994|   -0.060130|   -0.000176|
|         632|  -12.852224|  -12.293097|   -0.060130|   -0.000176|
|         633|  -12.860343|  -12.301191|   -0.060130|   -0.000176|
|         634|  -12.868476|  -12.309291|   -0.060130|   -0.000176|
|         635|  -12.876635|  -12.317417|   -0.060130|   -0.000176|
|         636|  -12.884727|  -12.325489|   -0.060130|   -0.000176|
|         637|  -12.892873|  -12.333620|   -0.060130|   -0.000176|
|         638|  -12.901028|  -12.341735|   -0.060130|   -0.000176|
|         639|  -12.909159|  -12.349850|   -0.060130|   -0.000176|
|         640|  -12.917269|  -12.357932|   -0.060130|   -0.000176|
|         641|  -12.925393|  -12.366028|   -0.060130|   -0.000176|
|         642|  -12.933570|  -12.374187|   -0.060130|   -0.000176|
|         643|  -12.941697|  -12.382296|   -0.060130|   -0.000176|
|         644|  -12.949828|  -12.390405|   -0.060130|   -0.000176|
|         645|  -12.957966|  -12.398516|   -0.060130|   -0.000176|
|         646|  -12.966117|  -12.406651|   -0.060130|   -0.000176|
|         647|  -12.974257|  -12.414774|   -0.060130|   -0.000176|
|         648|  -12.982386|  -12.422876|   -0.060130|   -0.000176|
|         649|  -12.990515|  -12.430995|   -0.060130|   -0.000176|
|         650|  -12.998690|  -12.439150|   -0.060130|   -0.000176|
|         651|  -13.006831|  -12.447263|   -0.060130|   -0.000176|

----------------------------- Solver Exit -------------------------------
All convergence criteria satisfied.
+-----------------------------------------------------------------------+
|      Convergence Field     |     Value    |   Criterion  |  Converged |
+-----------------------------------------------------------------------+
|                    rms[Rho]|      -13.0068|         < -13|         Yes|
+-----------------------------------------------------------------------+
-------------------------------------------------------------------------
+-----------------------------------------------------------------------+
|        File Writing Summary       |              Filename             |
+-----------------------------------------------------------------------+
|SU2 restart                        |restart_flow.dat                   |
|Paraview                           |flow.vtu                           |
|Paraview surface                   |surface_flow.vtu                   |
|CSV file                           |surface_flow.csv                   |
+-----------------------------------------------------------------------+

------------------------- Solver Postprocessing -------------------------
Deleted CNumerics container.
Deleted CIntegration container.
Deleted CSolver container.
Deleted CIteration container.
Deleted CInterpolator container.
Deleted CInterface container.
Deleted CGeometry container.
Deleted CFreeFormDefBox class.
Deleted CSurfaceMovement class.
Deleted CVolumetricMovement class.
Deleted CConfig container.
Deleted nInst container.
Deleted COutput class.
-------------------------------------------------------------------------

------------------------- Exit Success (SU2_CFD) ------------------------

