
-------------------------------------------------------------------------
|    ___ _   _ ___                                                      |
|   / __| | | |_  )   Release 7.0.5 "Blackbird"                         |
|   \__ \ |_| |/ /                                                      |
|   |___/\___//___|   Suite (Computational Fluid Dynamics Code)         |
|                                                                       |
-------------------------------------------------------------------------
| SU2 Project Website: https://su2code.github.io                        |
|                                                                       |
| The SU2 Project is maintained by the SU2 Foundation                   |
| (http://su2foundation.org)                                            |
-------------------------------------------------------------------------
| Copyright 2012-2020, SU2 Contributors                                 |
|                                                                       |
| SU2 is free software; you can redistribute it and/or                  |
| modify it under the terms of the GNU Lesser General Public            |
| License as published by the Free Software Foundation; either          |
| version 2.1 of the License, or (at your option) any later version.    |
|                                                                       |
| SU2 is distributed in the hope that it will be useful,                |
| but WITHOUT ANY WARRANTY; without even the implied warranty of        |
| MERCHANTABILITY or FITNESS FOR A PARTICULAR PURPOSE. See the GNU      |
| Lesser General Public License for more details.                       |
|                                                                       |
| You should have received a copy of the GNU Lesser General Public      |
| License along with SU2. If not, see <http://www.gnu.org/licenses/>.   |
-------------------------------------------------------------------------

Parsing config file for zone 0

----------------- Physical Case Definition ( Zone 0 ) -------------------
Compressible Euler equations.
Mach number: 0.1.
Angle of attack (AoA): -0.5 deg, and angle of sideslip (AoS): 0 deg.
No restart solution, use the values at infinity (freestream).
Non-Dimensional simulation (P=1.0, Rho=1.0, T=1.0 at the farfield).
The reference area is 1 m^2.
The semi-span will be computed using the max y(3D) value.
The reference length is 1 m.
Reference origin for moment evaluation is (0.25, 0, 0).
Surface(s) where the force coefficients are evaluated: airfoil.

Surface(s) plotted in the output file: airfoil.
Surface(s) affected by the design variables: airfoil.
Input mesh file name: mesh_NACA0012_inv_deform.su2

--------------- Space Numerical Integration ( Zone 0 ) ------------------
Jameson-Schmidt-Turkel scheme (2nd order in space) for the flow inviscid terms.
JST viscous coefficients (2nd & 4th): 0.5, 0.02.
The method includes a grid stretching correction (p = 0.3).
Gradient for upwind reconstruction: Green-Gauss.
Gradient for viscous and source terms: Green-Gauss.

--------------- Time Numerical Integration  ( Zone 0 ) ------------------
Local time stepping (steady state simulation).
Euler implicit method for the flow equations.
FGMRES is used for solving the linear system.
Using a LU-SGS preconditioning.
Convergence criteria of the linear solver: 0.0001.
Max number of linear iterations: 2.
V Multigrid Cycle, with 2 multigrid levels.
Damping factor for the residual restriction: 1.
Damping factor for the correction prolongation: 1.
No CFL adaptation.
+-------------------------------------------+
|  MG Level| Presmooth|PostSmooth|CorrectSmo|
+-------------------------------------------+
|         0|         1|         0|         0|
|         1|         2|         0|         0|
|         2|         3|         0|         0|
+-------------------------------------------+
Courant-Friedrichs-Lewy number:       10

------------------ Convergence Criteria  ( Zone 0 ) ---------------------
Maximum number of solver subiterations: 1000.
Begin convergence monitoring at iteration 10.
Residual minimum value: 1e-13.
Cauchy series min. value: 1e-06.
Number of Cauchy elements: 100.
Begin windowed time average at iteration 0.

-------------------- Output Information ( Zone 0 ) ----------------------
Writing solution files every 250 iterations.
Writing the convergence history file every 1 inner iterations.
Writing the screen convergence history every 1 inner iterations.
The tabular file format is CSV (.csv).
Convergence history file name: history_direct.
Forces breakdown file name: forces_breakdown.dat.
Surface file name: surface_flow.
Volume file name: flow.
Restart file name: restart_flow.dat.

------------- Config File Boundary Information ( Zone 0 ) ---------------
+-----------------------------------------------------------------------+
|                        Marker Type|                        Marker Name|
+-----------------------------------------------------------------------+
|                         Euler wall|                            airfoil|
+-----------------------------------------------------------------------+
|                          Far-field|                           farfield|
+-----------------------------------------------------------------------+

-------------------- Output Preprocessing ( Zone 0 ) --------------------
Screen output fields: INNER_ITER, RMS_DENSITY, RMS_ENERGY, LIFT, DRAG
History output group(s): ITER, RMS_RES, AERO_COEFF
Convergence field(s): RMS_DENSITY
Warning: No (valid) fields chosen for time convergence monitoring. Time convergence monitoring inactive.
Volume output fields: COORDINATES, SOLUTION, PRIMITIVE

------------------- Geometry Preprocessing ( Zone 0 ) -------------------
Two dimensional problem.
5233 grid points.
10216 volume elements.
2 surface markers.
200 boundary elements in index 0 (Marker = airfoil).
50 boundary elements in index 1 (Marker = farfield).
10216 triangles.
Setting point connectivity.
Renumbering points (Reverse Cuthill McKee Ordering).
Recomputing point connectivity.
Setting element connectivity.
Checking the numerical grid orientation.
Identifying edges and vertices.
Computing centers of gravity.
Setting the control volume structure.
Area of the computational grid: 1253.25.
Searching for the closest normal neighbors to the surfaces.
Storing a mapping from global to local point index.
Compute the surface curvature.
Max K: 7835.1. Mean K: 34.8247. Standard deviation K: 494.448.
Checking for periodicity.
Computing mesh quality statistics for the dual control volumes.
+--------------------------------------------------------------+
|           Mesh Quality Metric|        Minimum|        Maximum|
+--------------------------------------------------------------+
|    Orthogonality Angle (deg.)|        62.6715|        89.7089|
|     CV Face Area Aspect Ratio|        1.00001|        7.18338|
|           CV Sub-Volume Ratio|        1.00285|        6.47826|
+--------------------------------------------------------------+
Setting the multigrid structure.
+-------------------------------------------+
|  MG Level|       CVs|Aggl. Rate|       CFL|
+-------------------------------------------+
|         0|      5233|    1/1.00|        10|
|         1|      1533|    1/3.41|   8.11871|
|         2|       443|    1/3.46|    6.5465|
+-------------------------------------------+
Finding max control volume width.
Wetted area = 2.03917 m.
Area projection in the x-plane = 0.119981 m, y-plane = 0.999845 m.
Max. coordinate in the x-direction = 1 m, y-direction = 0.060005 m.
Min. coordinate in the x-direction = 0 m, y-direction = -0.0600062 m.
Checking if Euler & Symmetry markers are straight/plane:
Boundary marker airfoil is NOT a single straight.
Computing wall distances.

-------------------- Solver Preprocessing ( Zone 0 ) --------------------
Inviscid flow: Computing density based on free-stream
temperature and pressure using the ideal gas law.
Force coefficients computed using free-stream values.

-- Models:
+------------------------------------------------------------------------------+
|          Viscosity Model|        Conductivity Model|              Fluid Model|
+------------------------------------------------------------------------------+
|                        -|                         -|             STANDARD_AIR|
+------------------------------------------------------------------------------+
-- Fluid properties:
+------------------------------------------------------------------------------+
|                  Name|    Dim. value|    Ref. value|      Unit|Non-dim. value|
+------------------------------------------------------------------------------+
|          Gas Constant|       287.058|       287.058|  N.m/kg.K|             1|
|      Spec. Heat Ratio|             -|             -|         -|           1.4|
+------------------------------------------------------------------------------+
-- Initial and free-stream conditions:
+------------------------------------------------------------------------------+
|                  Name|    Dim. value|    Ref. value|      Unit|Non-dim. value|
+------------------------------------------------------------------------------+
|       Static Pressure|        101325|        101325|        Pa|             1|
|               Density|       1.22498|       1.22498|    kg/m^3|             1|
|           Temperature|        288.15|        288.15|         K|             1|
|          Total Energy|        207368|       82715.8|   m^2/s^2|         2.507|
|            Velocity-X|       34.0284|       287.603|       m/s|      0.118317|
|            Velocity-Y|     -0.296961|       287.603|       m/s|   -0.00103254|
|    Velocity Magnitude|       34.0297|       287.603|       m/s|      0.118322|
+------------------------------------------------------------------------------+
|           Mach Number|             -|             -|         -|           0.1|
+------------------------------------------------------------------------------+
Initialize Jacobian structure (Euler). MG level: 0.
Initialize Jacobian structure (Euler). MG level: 1.
Initialize Jacobian structure (Euler). MG level: 2.

------------------- Numerics Preprocessing ( Zone 0 ) -------------------

----------------- Integration Preprocessing ( Zone 0 ) ------------------

------------------- Iteration Preprocessing ( Zone 0 ) ------------------
Euler/Navier-Stokes/RANS fluid iteration.

------------------------------ Begin Solver -----------------------------

Simulation Run using the Single-zone Driver
+----------------------------------------------------------------+
|  Inner_Iter|    rms[Rho]|   rms[RhoE]|          CL|          CD|
+----------------------------------------------------------------+
|           0|   -4.493908|   -3.948973|   -0.539251|    1.370191|
|           1|   -4.619684|   -4.068775|    0.078759|   -0.138623|
|           2|   -4.731152|   -4.182493|    0.159057|   -0.249521|
|           3|   -4.706641|   -4.151988|    0.015615|    0.062233|
|           4|   -4.652615|   -4.105607|   -0.150399|    0.184080|
|           5|   -4.794519|   -4.242885|   -0.077815|    0.029814|
|           6|   -4.755055|   -4.207619|    0.045232|   -0.088033|
|           7|   -4.968523|   -4.417647|    0.015424|   -0.014800|
|           8|   -4.949460|   -4.402017|   -0.056341|    0.080467|
|           9|   -5.163560|   -4.613795|   -0.056796|    0.030274|
|          10|   -5.208348|   -4.659733|   -0.022560|   -0.050034|
|          11|   -5.311682|   -4.762895|   -0.012473|   -0.016913|
|          12|   -5.440297|   -4.892458|   -0.028814|    0.041645|
|          13|   -5.460353|   -4.910515|   -0.044965|    0.016663|
|          14|   -5.619191|   -5.072056|   -0.042617|   -0.027625|
|          15|   -5.643640|   -5.092344|   -0.031708|   -0.010022|
|          16|   -5.732290|   -5.187255|   -0.029937|    0.022910|
|          17|   -5.861137|   -5.308986|   -0.038691|    0.010300|
|          18|   -5.871815|   -5.326388|   -0.046175|   -0.014220|
|          19|   -6.037638|   -5.486353|   -0.044155|   -0.006235|
|          20|   -5.984314|   -5.439700|   -0.037636|    0.010857|
|          21|   -6.188315|   -5.639162|   -0.037842|    0.005576|
|          22|   -6.086038|   -5.541512|   -0.045327|   -0.006213|
|          23|   -6.281865|   -5.736301|   -0.048902|   -0.003244|
|          24|   -6.178652|   -5.633945|   -0.044262|    0.004535|
|          25|   -6.339142|   -5.796004|   -0.040681|    0.002742|
|          26|   -6.296719|   -5.753634|   -0.044369|   -0.002628|
|          27|   -6.367894|   -5.828302|   -0.048990|   -0.001813|
|          28|   -6.433169|   -5.892322|   -0.047934|    0.001889|
|          29|   -6.435487|   -5.894383|   -0.044473|    0.001598|
|          30|   -6.500132|   -5.963465|   -0.044623|   -0.001101|
|          31|   -6.498944|   -5.963109|   -0.047555|   -0.001290|
|          32|   -6.540009|   -6.006146|   -0.048931|    0.000600|
|          33|   -6.577281|   -6.043098|   -0.047596|    0.001152|
|          34|   -6.571364|   -6.036790|   -0.046265|   -0.000131|
|          35|   -6.589650|   -6.057676|   -0.046903|   -0.000899|
|          36|   -6.594973|   -6.063417|   -0.048359|   -0.000237|
|          37|   -6.608843|   -6.078871|   -0.048871|    0.000548|
|          38|   -6.621666|   -6.092479|   -0.048280|    0.000331|
|          39|   -6.626775|   -6.097949|   -0.047834|   -0.000357|
|          40|   -6.635212|   -6.107003|   -0.048237|   -0.000486|
|          41|   -6.642611|   -6.115367|   -0.048971|   -0.000075|
|          42|   -6.656513|   -6.131046|   -0.049276|    0.000157|
|          43|   -6.669989|   -6.145627|   -0.049117|   -0.000077|
|          44|   -6.680082|   -6.156034|   -0.049009|   -0.000368|
|          45|   -6.692561|   -6.169247|   -0.049246|   -0.000347|
|          46|   -6.704248|   -6.181904|   -0.049622|   -0.000162|
|          47|   -6.719354|   -6.198214|   -0.049817|   -0.000133|
|          48|   -6.735247|   -6.214671|   -0.049814|   -0.000284|
|          49|   -6.746864|   -6.226088|   -0.049806|   -0.000389|
|          50|   -6.758106|   -6.237624|   -0.049924|   -0.000343|
|          51|   -6.769964|   -6.250134|   -0.050106|   -0.000264|
|          52|   -6.781810|   -6.262465|   -0.050225|   -0.000284|
|          53|   -6.793298|   -6.274082|   -0.050256|   -0.000364|
|          54|   -6.803010|   -6.283700|   -0.050263|   -0.000393|
|          55|   -6.812055|   -6.292946|   -0.050310|   -0.000351|
|          56|   -6.821898|   -6.303282|   -0.050395|   -0.000314|
|          57|   -6.832026|   -6.313883|   -0.050474|   -0.000332|
|          58|   -6.842040|   -6.324246|   -0.050519|   -0.000368|
|          59|   -6.852167|   -6.334687|   -0.050544|   -0.000369|
|          60|   -6.863128|   -6.346031|   -0.050581|   -0.000340|
|          61|   -6.875303|   -6.358620|   -0.050645|   -0.000323|
|          62|   -6.888281|   -6.371962|   -0.050724|   -0.000334|
|          63|   -6.901740|   -6.385701|   -0.050800|   -0.000348|
|          64|   -6.915811|   -6.399965|   -0.050865|   -0.000344|
|          65|   -6.930739|   -6.414998|   -0.050932|   -0.000330|
|          66|   -6.946455|   -6.430736|   -0.051016|   -0.000327|
|          67|   -6.962480|   -6.446698|   -0.051118|   -0.000335|
|          68|   -6.978507|   -6.462563|   -0.051225|   -0.000343|
|          69|   -6.994558|   -6.478352|   -0.051327|   -0.000342|
|          70|   -7.010587|   -6.494033|   -0.051427|   -0.000340|
|          71|   -7.026357|   -6.509417|   -0.051532|   -0.000345|
|          72|   -7.041595|   -6.524251|   -0.051647|   -0.000353|
|          73|   -7.056265|   -6.538474|   -0.051765|   -0.000360|
|          74|   -7.070557|   -6.552265|   -0.051878|   -0.000362|
|          75|   -7.084576|   -6.565760|   -0.051985|   -0.000366|
|          76|   -7.098271|   -6.578947|   -0.052089|   -0.000372|
|          77|   -7.111654|   -6.591846|   -0.052195|   -0.000379|
|          78|   -7.124910|   -6.604615|   -0.052299|   -0.000384|
|          79|   -7.138270|   -6.617471|   -0.052396|   -0.000387|
|          80|   -7.151828|   -6.630531|   -0.052487|   -0.000390|
|          81|   -7.165554|   -6.643791|   -0.052573|   -0.000394|
|          82|   -7.179433|   -6.657244|   -0.052656|   -0.000398|
|          83|   -7.193502|   -6.670925|   -0.052737|   -0.000400|
|          84|   -7.207763|   -6.684843|   -0.052814|   -0.000400|
|          85|   -7.222139|   -6.698934|   -0.052886|   -0.000401|
|          86|   -7.236542|   -6.713118|   -0.052956|   -0.000402|
|          87|   -7.250932|   -6.727352|   -0.053025|   -0.000402|
|          88|   -7.265295|   -6.741610|   -0.053094|   -0.000402|
|          89|   -7.279603|   -6.755852|   -0.053162|   -0.000401|
|          90|   -7.293842|   -6.770052|   -0.053229|   -0.000400|
|          91|   -7.308068|   -6.784251|   -0.053297|   -0.000399|
|          92|   -7.322390|   -6.798548|   -0.053367|   -0.000398|
|          93|   -7.336918|   -6.813049|   -0.053438|   -0.000397|
|          94|   -7.351736|   -6.827839|   -0.053512|   -0.000396|
|          95|   -7.366914|   -6.842997|   -0.053586|   -0.000395|
|          96|   -7.382521|   -6.858612|   -0.053663|   -0.000395|
|          97|   -7.398595|   -6.874753|   -0.053741|   -0.000395|
|          98|   -7.415113|   -6.891429|   -0.053822|   -0.000395|
|          99|   -7.431989|   -6.908580|   -0.053903|   -0.000395|
|         100|   -7.449077|   -6.926085|   -0.053986|   -0.000396|
|         101|   -7.466201|   -6.943788|   -0.054069|   -0.000396|
|         102|   -7.483170|   -6.961509|   -0.054153|   -0.000398|
|         103|   -7.499797|   -6.979057|   -0.054236|   -0.000399|
|         104|   -7.515912|   -6.996241|   -0.054320|   -0.000400|
|         105|   -7.531393|   -7.012901|   -0.054402|   -0.000402|
|         106|   -7.546186|   -7.028939|   -0.054482|   -0.000404|
|         107|   -7.560319|   -7.044335|   -0.054561|   -0.000406|
|         108|   -7.573900|   -7.059157|   -0.054638|   -0.000408|
|         109|   -7.587095|   -7.073540|   -0.054713|   -0.000410|
|         110|   -7.600101|   -7.087674|   -0.054786|   -0.000411|
|         111|   -7.613124|   -7.101774|   -0.054856|   -0.000413|
|         112|   -7.626344|   -7.116045|   -0.054924|   -0.000415|
|         113|   -7.639896|   -7.130656|   -0.054991|   -0.000416|
|         114|   -7.653846|   -7.145710|   -0.055055|   -0.000418|
|         115|   -7.668195|   -7.161245|   -0.055117|   -0.000419|
|         116|   -7.682882|   -7.177227|   -0.055178|   -0.000420|
|         117|   -7.697791|   -7.193553|   -0.055238|   -0.000421|
|         118|   -7.712765|   -7.210058|   -0.055297|   -0.000422|
|         119|   -7.727628|   -7.226540|   -0.055354|   -0.000423|
|         120|   -7.742219|   -7.242793|   -0.055412|   -0.000423|
|         121|   -7.756424|   -7.258653|   -0.055469|   -0.000423|
|         122|   -7.770202|   -7.274032|   -0.055526|   -0.000424|
|         123|   -7.783598|   -7.288943|   -0.055583|   -0.000424|
|         124|   -7.796743|   -7.303512|   -0.055640|   -0.000424|
|         125|   -7.809829|   -7.317958|   -0.055698|   -0.000424|
|         126|   -7.823076|   -7.332552|   -0.055756|   -0.000424|
|         127|   -7.836691|   -7.347569|   -0.055814|   -0.000424|
|         128|   -7.850827|   -7.363239|   -0.055873|   -0.000424|
|         129|   -7.865555|   -7.379702|   -0.055932|   -0.000424|
|         130|   -7.880843|   -7.396976|   -0.055992|   -0.000424|
|         131|   -7.896551|   -7.414943|   -0.056052|   -0.000424|
|         132|   -7.912443|   -7.433347|   -0.056112|   -0.000424|
|         133|   -7.928212|   -7.451810|   -0.056172|   -0.000425|
|         134|   -7.943512|   -7.469871|   -0.056232|   -0.000425|
|         135|   -7.958012|   -7.487036|   -0.056291|   -0.000425|
|         136|   -7.971447|   -7.502863|   -0.056350|   -0.000426|
|         137|   -7.983669|   -7.517046|   -0.056408|   -0.000426|
|         138|   -7.994686|   -7.529489|   -0.056465|   -0.000427|
|         139|   -8.004662|   -7.540344|   -0.056521|   -0.000427|
|         140|   -8.013893|   -7.549984|   -0.056576|   -0.000428|
|         141|   -8.022757|   -7.558933|   -0.056629|   -0.000429|
|         142|   -8.031651|   -7.567775|   -0.056681|   -0.000430|
|         143|   -8.040933|   -7.577064|   -0.056732|   -0.000430|
|         144|   -8.050886|   -7.587258|   -0.056781|   -0.000431|
|         145|   -8.061684|   -7.598672|   -0.056829|   -0.000432|
|         146|   -8.073379|   -7.611459|   -0.056876|   -0.000433|
|         147|   -8.085903|   -7.625601|   -0.056922|   -0.000433|
|         148|   -8.099073|   -7.640908|   -0.056966|   -0.000434|
|         149|   -8.112616|   -7.657040|   -0.057009|   -0.000435|
|         150|   -8.126206|   -7.673536|   -0.057052|   -0.000436|
|         151|   -8.139510|   -7.689883|   -0.057093|   -0.000437|
|         152|   -8.152248|   -7.705595|   -0.057133|   -0.000437|
|         153|   -8.164247|   -7.720308|   -0.057172|   -0.000438|
|         154|   -8.175467|   -7.733861|   -0.057211|   -0.000439|
|         155|   -8.186009|   -7.746320|   -0.057248|   -0.000439|
|         156|   -8.196082|   -7.757954|   -0.057286|   -0.000440|
|         157|   -8.205954|   -7.769172|   -0.057322|   -0.000440|
|         158|   -8.215904|   -7.780434|   -0.057358|   -0.000441|
|         159|   -8.226169|   -7.792168|   -0.057394|   -0.000441|
|         160|   -8.236904|   -7.804699|   -0.057429|   -0.000441|
|         161|   -8.248163|   -7.818207|   -0.057465|   -0.000442|
|         162|   -8.259891|   -7.832699|   -0.057499|   -0.000442|
|         163|   -8.271922|   -7.848000|   -0.057534|   -0.000442|
|         164|   -8.284010|   -7.863770|   -0.057568|   -0.000442|
|         165|   -8.295853|   -7.879530|   -0.057602|   -0.000443|
|         166|   -8.307142|   -7.894725|   -0.057635|   -0.000443|
|         167|   -8.317612|   -7.908805|   -0.057668|   -0.000443|
|         168|   -8.327087|   -7.921334|   -0.057700|   -0.000443|
|         169|   -8.335515|   -7.932078|   -0.057732|   -0.000444|
|         170|   -8.342980|   -7.941061|   -0.057763|   -0.000444|
|         171|   -8.349678|   -7.948559|   -0.057793|   -0.000444|
|         172|   -8.355882|   -7.955031|   -0.057822|   -0.000444|
|         173|   -8.361896|   -7.961036|   -0.057851|   -0.000444|
|         174|   -8.368014|   -7.967131|   -0.057880|   -0.000445|
|         175|   -8.374479|   -7.973806|   -0.057907|   -0.000445|
|         176|   -8.381465|   -7.981430|   -0.057934|   -0.000445|
|         177|   -8.389060|   -7.990223|   -0.057960|   -0.000445|
|         178|   -8.397263|   -8.000248|   -0.057986|   -0.000446|
|         179|   -8.405992|   -8.011410|   -0.058010|   -0.000446|
|         180|   -8.415093|   -8.023475|   -0.058035|   -0.000446|
|         181|   -8.424370|   -8.036096|   -0.058058|   -0.000447|
|         182|   -8.433614|   -8.048870|   -0.058081|   -0.000447|
|         183|   -8.442634|   -8.061395|   -0.058104|   -0.000447|
|         184|   -8.451292|   -8.073343|   -0.058125|   -0.000448|
|         185|   -8.459520|   -8.084513|   -0.058147|   -0.000448|
|         186|   -8.467325|   -8.094862|   -0.058168|   -0.000448|
|         187|   -8.474774|   -8.104492|   -0.058188|   -0.000449|
|         188|   -8.481974|   -8.113613|   -0.058208|   -0.000449|
|         189|   -8.489049|   -8.122488|   -0.058228|   -0.000449|
|         190|   -8.496106|   -8.131373|   -0.058247|   -0.000449|
|         191|   -8.503227|   -8.140472|   -0.058267|   -0.000450|
|         192|   -8.510448|   -8.149903|   -0.058286|   -0.000450|
|         193|   -8.517760|   -8.159684|   -0.058304|   -0.000450|
|         194|   -8.525114|   -8.169733|   -0.058323|   -0.000450|
|         195|   -8.532428|   -8.179878|   -0.058341|   -0.000450|
|         196|   -8.539605|   -8.189886|   -0.058359|   -0.000451|
|         197|   -8.546548|   -8.199500|   -0.058377|   -0.000451|
|         198|   -8.553178|   -8.208479|   -0.058395|   -0.000451|
|         199|   -8.559446|   -8.216643|   -0.058412|   -0.000451|
|         200|   -8.565343|   -8.223909|   -0.058430|   -0.000451|
|         201|   -8.570903|   -8.230301|   -0.058447|   -0.000451|
|         202|   -8.576195|   -8.235950|   -0.058464|   -0.000451|
|         203|   -8.581310|   -8.241066|   -0.058480|   -0.000451|
|         204|   -8.586354|   -8.245903|   -0.058496|   -0.000451|
|         205|   -8.591430|   -8.250723|   -0.058512|   -0.000451|
|         206|   -8.596625|   -8.255761|   -0.058528|   -0.000452|
|         207|   -8.602007|   -8.261207|   -0.058543|   -0.000452|
|         208|   -8.607614|   -8.267181|   -0.058559|   -0.000452|
|         209|   -8.613453|   -8.273740|   -0.058574|   -0.000452|
|         210|   -8.619506|   -8.280866|   -0.058588|   -0.000452|
|         211|   -8.625728|   -8.288484|   -0.058603|   -0.000452|
|         212|   -8.632059|   -8.296469|   -0.058617|   -0.000452|
|         213|   -8.638432|   -8.304670|   -0.058630|   -0.000452|
|         214|   -8.644779|   -8.312929|   -0.058644|   -0.000452|
|         215|   -8.651045|   -8.321108|   -0.058657|   -0.000452|
|         216|   -8.657194|   -8.329103|   -0.058671|   -0.000452|
|         217|   -8.663208|   -8.336862|   -0.058683|   -0.000452|
|         218|   -8.669090|   -8.344381|   -0.058696|   -0.000452|
|         219|   -8.674860|   -8.351701|   -0.058709|   -0.000452|
|         220|   -8.680545|   -8.358890|   -0.058721|   -0.000452|
|         221|   -8.686178|   -8.366022|   -0.058733|   -0.000453|
|         222|   -8.691784|   -8.373166|   -0.058745|   -0.000453|
|         223|   -8.697381|   -8.380363|   -0.058757|   -0.000453|
|         224|   -8.702975|   -8.387621|   -0.058769|   -0.000453|
|         225|   -8.708556|   -8.394913|   -0.058781|   -0.000453|
|         226|   -8.714107|   -8.402177|   -0.058793|   -0.000453|
|         227|   -8.719600|   -8.409327|   -0.058804|   -0.000453|
|         228|   -8.725005|   -8.416265|   -0.058816|   -0.000453|
|         229|   -8.730292|   -8.422895|   -0.058827|   -0.000453|
|         230|   -8.735441|   -8.429141|   -0.058838|   -0.000453|
|         231|   -8.740435|   -8.434954|   -0.058849|   -0.000453|
|         232|   -8.745274|   -8.440325|   -0.058860|   -0.000453|
|         233|   -8.749968|   -8.445287|   -0.058871|   -0.000453|
|         234|   -8.754536|   -8.449908|   -0.058882|   -0.000453|
|         235|   -8.759009|   -8.454285|   -0.058892|   -0.000453|
|         236|   -8.763420|   -8.458529|   -0.058903|   -0.000453|
|         237|   -8.767804|   -8.462757|   -0.058913|   -0.000453|
|         238|   -8.772193|   -8.467075|   -0.058923|   -0.000453|
|         239|   -8.776615|   -8.471572|   -0.058933|   -0.000453|
|         240|   -8.781089|   -8.476311|   -0.058943|   -0.000453|
|         241|   -8.785628|   -8.481328|   -0.058953|   -0.000453|
|         242|   -8.790232|   -8.486629|   -0.058962|   -0.000453|
|         243|   -8.794897|   -8.492197|   -0.058972|   -0.000453|
|         244|   -8.799610|   -8.497990|   -0.058981|   -0.000453|
|         245|   -8.804357|   -8.503958|   -0.058990|   -0.000453|
|         246|   -8.809118|   -8.510040|   -0.058999|   -0.000453|
|         247|   -8.813877|   -8.516177|   -0.059008|   -0.000453|
|         248|   -8.818619|   -8.522321|   -0.059016|   -0.000452|
|         249|   -8.823333|   -8.528433|   -0.059025|   -0.000452|
|         250|   -8.828010|   -8.534488|   -0.059033|   -0.000452|
+-----------------------------------------------------------------------+
|        File Writing Summary       |              Filename             |
+-----------------------------------------------------------------------+
|SU2 restart                        |restart_flow.dat                   |
|Paraview                           |flow.vtu                           |
|Paraview surface                   |surface_flow.vtu                   |
|CSV file                           |surface_flow.csv                   |
+-----------------------------------------------------------------------+
+----------------------------------------------------------------+
|  Inner_Iter|    rms[Rho]|   rms[RhoE]|          CL|          CD|
+----------------------------------------------------------------+
|         251|   -8.832649|   -8.540477|   -0.059041|   -0.000452|
|         252|   -8.837249|   -8.546404|   -0.059050|   -0.000452|
|         253|   -8.841813|   -8.552278|   -0.059058|   -0.000452|
|         254|   -8.846344|   -8.558112|   -0.059066|   -0.000452|
|         255|   -8.850845|   -8.563921|   -0.059074|   -0.000452|
|         256|   -8.855317|   -8.569710|   -0.059081|   -0.000452|
|         257|   -8.859761|   -8.575482|   -0.059089|   -0.000452|
|         258|   -8.864176|   -8.581228|   -0.059097|   -0.000452|
|         259|   -8.868556|   -8.586933|   -0.059104|   -0.000452|
|         260|   -8.872899|   -8.592580|   -0.059112|   -0.000452|
|         261|   -8.877199|   -8.598145|   -0.059119|   -0.000452|
|         262|   -8.881453|   -8.603609|   -0.059126|   -0.000452|
|         263|   -8.885658|   -8.608958|   -0.059134|   -0.000452|
|         264|   -8.889815|   -8.614182|   -0.059141|   -0.000452|
|         265|   -8.893926|   -8.619286|   -0.059148|   -0.000452|
|         266|   -8.897997|   -8.624283|   -0.059155|   -0.000452|
|         267|   -8.902035|   -8.629193|   -0.059162|   -0.000452|
|         268|   -8.906050|   -8.634049|   -0.059169|   -0.000452|
|         269|   -8.910054|   -8.638886|   -0.059175|   -0.000452|
|         270|   -8.914057|   -8.643742|   -0.059182|   -0.000452|
|         271|   -8.918072|   -8.648653|   -0.059188|   -0.000452|
|         272|   -8.922109|   -8.653653|   -0.059195|   -0.000452|
|         273|   -8.926175|   -8.658767|   -0.059201|   -0.000452|
|         274|   -8.930278|   -8.664015|   -0.059207|   -0.000452|
|         275|   -8.934422|   -8.669404|   -0.059213|   -0.000452|
|         276|   -8.938607|   -8.674937|   -0.059220|   -0.000451|
|         277|   -8.942834|   -8.680607|   -0.059225|   -0.000451|
|         278|   -8.947100|   -8.686400|   -0.059231|   -0.000451|
|         279|   -8.951401|   -8.692298|   -0.059237|   -0.000451|
|         280|   -8.955734|   -8.698283|   -0.059243|   -0.000451|
|         281|   -8.960093|   -8.704334|   -0.059248|   -0.000451|
|         282|   -8.964475|   -8.710431|   -0.059254|   -0.000451|
|         283|   -8.968875|   -8.716558|   -0.059260|   -0.000451|
|         284|   -8.973289|   -8.722701|   -0.059265|   -0.000451|
|         285|   -8.977715|   -8.728849|   -0.059270|   -0.000451|
|         286|   -8.982150|   -8.734993|   -0.059275|   -0.000451|
|         287|   -8.986593|   -8.741129|   -0.059281|   -0.000451|
|         288|   -8.991043|   -8.747250|   -0.059286|   -0.000451|
|         289|   -8.995498|   -8.753355|   -0.059291|   -0.000451|
|         290|   -8.999957|   -8.759440|   -0.059296|   -0.000451|
|         291|   -9.004420|   -8.765503|   -0.059301|   -0.000451|
|         292|   -9.008886|   -8.771539|   -0.059306|   -0.000451|
|         293|   -9.013355|   -8.777547|   -0.059310|   -0.000451|
|         294|   -9.017826|   -8.783523|   -0.059315|   -0.000451|
|         295|   -9.022300|   -8.789468|   -0.059320|   -0.000451|
|         296|   -9.026778|   -8.795380|   -0.059324|   -0.000451|
|         297|   -9.031260|   -8.801264|   -0.059329|   -0.000451|
|         298|   -9.035748|   -8.807123|   -0.059333|   -0.000450|
|         299|   -9.040246|   -8.812964|   -0.059338|   -0.000450|
|         300|   -9.044756|   -8.818799|   -0.059342|   -0.000450|
|         301|   -9.049281|   -8.824637|   -0.059346|   -0.000450|
|         302|   -9.053826|   -8.830493|   -0.059351|   -0.000450|
|         303|   -9.058394|   -8.836378|   -0.059355|   -0.000450|
|         304|   -9.062990|   -8.842305|   -0.059359|   -0.000450|
|         305|   -9.067616|   -8.848287|   -0.059363|   -0.000450|
|         306|   -9.072276|   -8.854333|   -0.059367|   -0.000450|
|         307|   -9.076972|   -8.860450|   -0.059371|   -0.000450|
|         308|   -9.081706|   -8.866643|   -0.059375|   -0.000450|
|         309|   -9.086480|   -8.872913|   -0.059378|   -0.000450|
|         310|   -9.091294|   -8.879260|   -0.059382|   -0.000450|
|         311|   -9.096148|   -8.885679|   -0.059386|   -0.000450|
|         312|   -9.101042|   -8.892167|   -0.059390|   -0.000450|
|         313|   -9.105973|   -8.898715|   -0.059393|   -0.000450|
|         314|   -9.110942|   -8.905317|   -0.059397|   -0.000450|
|         315|   -9.115945|   -8.911965|   -0.059400|   -0.000450|
|         316|   -9.120983|   -8.918650|   -0.059404|   -0.000450|
|         317|   -9.126052|   -8.925365|   -0.059407|   -0.000450|
|         318|   -9.131152|   -8.932104|   -0.059410|   -0.000450|
|         319|   -9.136280|   -8.938859|   -0.059414|   -0.000450|
|         320|   -9.141436|   -8.945625|   -0.059417|   -0.000450|
|         321|   -9.146617|   -8.952399|   -0.059420|   -0.000450|
|         322|   -9.151823|   -8.959175|   -0.059423|   -0.000449|
|         323|   -9.157052|   -8.965951|   -0.059427|   -0.000449|
|         324|   -9.162305|   -8.972723|   -0.059430|   -0.000449|
|         325|   -9.167579|   -8.979491|   -0.059433|   -0.000449|
|         326|   -9.172875|   -8.986253|   -0.059436|   -0.000449|
|         327|   -9.178193|   -8.993009|   -0.059439|   -0.000449|
|         328|   -9.183532|   -8.999758|   -0.059442|   -0.000449|
|         329|   -9.188894|   -9.006504|   -0.059445|   -0.000449|
|         330|   -9.194278|   -9.013248|   -0.059447|   -0.000449|
|         331|   -9.199687|   -9.019994|   -0.059450|   -0.000449|
|         332|   -9.205120|   -9.026747|   -0.059453|   -0.000449|
|         333|   -9.210579|   -9.033512|   -0.059456|   -0.000449|
|         334|   -9.216067|   -9.040294|   -0.059458|   -0.000449|
|         335|   -9.221585|   -9.047100|   -0.059461|   -0.000449|
|         336|   -9.227134|   -9.053937|   -0.059464|   -0.000449|
|         337|   -9.232716|   -9.060810|   -0.059466|   -0.000449|
|         338|   -9.238334|   -9.067724|   -0.059469|   -0.000449|
|         339|   -9.243987|   -9.074683|   -0.059471|   -0.000449|
|         340|   -9.249679|   -9.081691|   -0.059474|   -0.000449|
|         341|   -9.255409|   -9.088750|   -0.059476|   -0.000449|
|         342|   -9.261178|   -9.095860|   -0.059478|   -0.000449|
|         343|   -9.266988|   -9.103021|   -0.059481|   -0.000449|
|         344|   -9.272837|   -9.110231|   -0.059483|   -0.000449|
|         345|   -9.278725|   -9.117487|   -0.059485|   -0.000449|
|         346|   -9.284653|   -9.124786|   -0.059488|   -0.000449|
|         347|   -9.290620|   -9.132124|   -0.059490|   -0.000449|
|         348|   -9.296624|   -9.139496|   -0.059492|   -0.000449|
|         349|   -9.302666|   -9.146897|   -0.059494|   -0.000449|
|         350|   -9.308744|   -9.154324|   -0.059496|   -0.000449|
|         351|   -9.314856|   -9.161771|   -0.059498|   -0.000449|
|         352|   -9.321003|   -9.169235|   -0.059500|   -0.000449|
|         353|   -9.327183|   -9.176712|   -0.059502|   -0.000449|
|         354|   -9.333395|   -9.184198|   -0.059504|   -0.000449|
|         355|   -9.339638|   -9.191692|   -0.059506|   -0.000448|
|         356|   -9.345912|   -9.199191|   -0.059508|   -0.000448|
|         357|   -9.352215|   -9.206692|   -0.059510|   -0.000448|
|         358|   -9.358547|   -9.214196|   -0.059512|   -0.000448|
|         359|   -9.364909|   -9.221702|   -0.059514|   -0.000448|
|         360|   -9.371299|   -9.229210|   -0.059516|   -0.000448|
|         361|   -9.377717|   -9.236720|   -0.059518|   -0.000448|
|         362|   -9.384163|   -9.244234|   -0.059519|   -0.000448|
|         363|   -9.390639|   -9.251755|   -0.059521|   -0.000448|
|         364|   -9.397143|   -9.259284|   -0.059523|   -0.000448|
|         365|   -9.403677|   -9.266824|   -0.059525|   -0.000448|
|         366|   -9.410241|   -9.274379|   -0.059526|   -0.000448|
|         367|   -9.416836|   -9.281952|   -0.059528|   -0.000448|
|         368|   -9.423463|   -9.289546|   -0.059530|   -0.000448|
|         369|   -9.430122|   -9.297166|   -0.059531|   -0.000448|
|         370|   -9.436815|   -9.304814|   -0.059533|   -0.000448|
|         371|   -9.443542|   -9.312493|   -0.059534|   -0.000448|
|         372|   -9.450304|   -9.320206|   -0.059536|   -0.000448|
|         373|   -9.457102|   -9.327954|   -0.059537|   -0.000448|
|         374|   -9.463936|   -9.335738|   -0.059539|   -0.000448|
|         375|   -9.470807|   -9.343560|   -0.059540|   -0.000448|
|         376|   -9.477714|   -9.351418|   -0.059542|   -0.000448|
|         377|   -9.484659|   -9.359312|   -0.059543|   -0.000448|
|         378|   -9.491640|   -9.367239|   -0.059545|   -0.000448|
|         379|   -9.498658|   -9.375199|   -0.059546|   -0.000448|
|         380|   -9.505713|   -9.383187|   -0.059548|   -0.000448|
|         381|   -9.512804|   -9.391203|   -0.059549|   -0.000448|
|         382|   -9.519931|   -9.399241|   -0.059550|   -0.000448|
|         383|   -9.527092|   -9.407300|   -0.059552|   -0.000448|
|         384|   -9.534288|   -9.415375|   -0.059553|   -0.000448|
|         385|   -9.541517|   -9.423465|   -0.059554|   -0.000448|
|         386|   -9.548780|   -9.431567|   -0.059555|   -0.000448|
|         387|   -9.556075|   -9.439677|   -0.059557|   -0.000448|
|         388|   -9.563402|   -9.447794|   -0.059558|   -0.000448|
|         389|   -9.570759|   -9.455916|   -0.059559|   -0.000448|
|         390|   -9.578148|   -9.464042|   -0.059560|   -0.000448|
|         391|   -9.585566|   -9.472171|   -0.059561|   -0.000448|
|         392|   -9.593015|   -9.480303|   -0.059563|   -0.000448|
|         393|   -9.600493|   -9.488437|   -0.059564|   -0.000448|
|         394|   -9.608000|   -9.496575|   -0.059565|   -0.000448|
|         395|   -9.615537|   -9.504717|   -0.059566|   -0.000448|
|         396|   -9.623103|   -9.512864|   -0.059567|   -0.000448|
|         397|   -9.630698|   -9.521018|   -0.059568|   -0.000448|
|         398|   -9.638323|   -9.529180|   -0.059569|   -0.000448|
|         399|   -9.645978|   -9.537353|   -0.059570|   -0.000448|
|         400|   -9.653664|   -9.545539|   -0.059571|   -0.000448|
|         401|   -9.661380|   -9.553740|   -0.059572|   -0.000448|
|         402|   -9.669127|   -9.561958|   -0.059573|   -0.000448|
|         403|   -9.676906|   -9.570194|   -0.059574|   -0.000448|
|         404|   -9.684716|   -9.578451|   -0.059575|   -0.000448|
|         405|   -9.692559|   -9.586729|   -0.059576|   -0.000448|
|         406|   -9.700435|   -9.595030|   -0.059577|   -0.000448|
|         407|   -9.708344|   -9.603354|   -0.059578|   -0.000448|
|         408|   -9.716286|   -9.611702|   -0.059579|   -0.000448|
|         409|   -9.724261|   -9.620072|   -0.059580|   -0.000448|
|         410|   -9.732270|   -9.628465|   -0.059581|   -0.000448|
|         411|   -9.740312|   -9.636879|   -0.059582|   -0.000448|
|         412|   -9.748388|   -9.645313|   -0.059583|   -0.000448|
|         413|   -9.756497|   -9.653765|   -0.059583|   -0.000448|
|         414|   -9.764638|   -9.662234|   -0.059584|   -0.000448|
|         415|   -9.772812|   -9.670717|   -0.059585|   -0.000448|
|         416|   -9.781019|   -9.679213|   -0.059586|   -0.000448|
|         417|   -9.789257|   -9.687719|   -0.059587|   -0.000448|
|         418|   -9.797527|   -9.696232|   -0.059587|   -0.000448|
|         419|   -9.805827|   -9.704753|   -0.059588|   -0.000448|
|         420|   -9.814159|   -9.713277|   -0.059589|   -0.000448|
|         421|   -9.822520|   -9.721805|   -0.059590|   -0.000448|
|         422|   -9.830910|   -9.730334|   -0.059591|   -0.000448|
|         423|   -9.839330|   -9.738864|   -0.059591|   -0.000448|
|         424|   -9.847779|   -9.747394|   -0.059592|   -0.000448|
|         425|   -9.856257|   -9.755924|   -0.059593|   -0.000448|
|         426|   -9.864763|   -9.764452|   -0.059593|   -0.000448|
|         427|   -9.873297|   -9.772981|   -0.059594|   -0.000448|
|         428|   -9.881859|   -9.781509|   -0.059595|   -0.000448|
|         429|   -9.890449|   -9.790038|   -0.059596|   -0.000448|
|         430|   -9.899067|   -9.798568|   -0.059596|   -0.000448|
|         431|   -9.907713|   -9.807100|   -0.059597|   -0.000448|
|         432|   -9.916387|   -9.815636|   -0.059598|   -0.000447|
|         433|   -9.925089|   -9.824176|   -0.059598|   -0.000447|
|         434|   -9.933820|   -9.832721|   -0.059599|   -0.000447|
|         435|   -9.942579|   -9.841273|   -0.059599|   -0.000447|
|         436|   -9.951367|   -9.849832|   -0.059600|   -0.000447|
|         437|   -9.960184|   -9.858399|   -0.059601|   -0.000447|
|         438|   -9.969030|   -9.866974|   -0.059601|   -0.000447|
|         439|   -9.977905|   -9.875557|   -0.059602|   -0.000447|
|         440|   -9.986810|   -9.884150|   -0.059602|   -0.000447|
|         441|   -9.995744|   -9.892750|   -0.059603|   -0.000447|
|         442|  -10.004707|   -9.901359|   -0.059604|   -0.000447|
|         443|  -10.013700|   -9.909974|   -0.059604|   -0.000447|
|         444|  -10.022722|   -9.918597|   -0.059605|   -0.000447|
|         445|  -10.031773|   -9.927224|   -0.059605|   -0.000447|
|         446|  -10.040853|   -9.935855|   -0.059606|   -0.000447|
|         447|  -10.049962|   -9.944489|   -0.059606|   -0.000447|
|         448|  -10.059100|   -9.953125|   -0.059607|   -0.000447|
|         449|  -10.068265|   -9.961761|   -0.059607|   -0.000447|
|         450|  -10.077459|   -9.970395|   -0.059608|   -0.000447|
|         451|  -10.086680|   -9.979026|   -0.059608|   -0.000447|
|         452|  -10.095928|   -9.987654|   -0.059609|   -0.000447|
|         453|  -10.105204|   -9.996277|   -0.059609|   -0.000447|
|         454|  -10.114505|  -10.004893|   -0.059610|   -0.000447|
|         455|  -10.123833|  -10.013503|   -0.059610|   -0.000447|
|         456|  -10.133187|  -10.022105|   -0.059611|   -0.000447|
|         457|  -10.142567|  -10.030699|   -0.059611|   -0.000447|
|         458|  -10.151972|  -10.039285|   -0.059612|   -0.000447|
|         459|  -10.161402|  -10.047862|   -0.059612|   -0.000447|
|         460|  -10.170857|  -10.056431|   -0.059613|   -0.000447|
|         461|  -10.180337|  -10.064991|   -0.059613|   -0.000447|
|         462|  -10.189841|  -10.073544|   -0.059613|   -0.000447|
|         463|  -10.199369|  -10.082088|   -0.059614|   -0.000447|
|         464|  -10.208922|  -10.090625|   -0.059614|   -0.000447|
|         465|  -10.218500|  -10.099154|   -0.059615|   -0.000447|
|         466|  -10.228101|  -10.107676|   -0.059615|   -0.000447|
|         467|  -10.237727|  -10.116192|   -0.059615|   -0.000447|
|         468|  -10.247376|  -10.124700|   -0.059616|   -0.000447|
|         469|  -10.257050|  -10.133203|   -0.059616|   -0.000447|
|         470|  -10.266748|  -10.141699|   -0.059617|   -0.000447|
|         471|  -10.276469|  -10.150188|   -0.059617|   -0.000447|
|         472|  -10.286215|  -10.158670|   -0.059617|   -0.000447|
|         473|  -10.295984|  -10.167145|   -0.059618|   -0.000447|
|         474|  -10.305776|  -10.175612|   -0.059618|   -0.000447|
|         475|  -10.315592|  -10.184071|   -0.059618|   -0.000447|
|         476|  -10.325431|  -10.192520|   -0.059619|   -0.000447|
|         477|  -10.335293|  -10.200959|   -0.059619|   -0.000447|
|         478|  -10.345177|  -10.209388|   -0.059619|   -0.000447|
|         479|  -10.355084|  -10.217804|   -0.059620|   -0.000447|
|         480|  -10.365013|  -10.226208|   -0.059620|   -0.000447|
|         481|  -10.374963|  -10.234599|   -0.059620|   -0.000447|
|         482|  -10.384935|  -10.242974|   -0.059621|   -0.000447|
|         483|  -10.394927|  -10.251335|   -0.059621|   -0.000447|
|         484|  -10.404941|  -10.259679|   -0.059621|   -0.000447|
|         485|  -10.414974|  -10.268007|   -0.059622|   -0.000447|
|         486|  -10.425027|  -10.276318|   -0.059622|   -0.000447|
|         487|  -10.435099|  -10.284611|   -0.059622|   -0.000447|
|         488|  -10.445190|  -10.292887|   -0.059623|   -0.000447|
|         489|  -10.455300|  -10.301143|   -0.059623|   -0.000447|
|         490|  -10.465428|  -10.309382|   -0.059623|   -0.000447|
|         491|  -10.475574|  -10.317602|   -0.059624|   -0.000447|
|         492|  -10.485738|  -10.325804|   -0.059624|   -0.000447|
|         493|  -10.495918|  -10.333986|   -0.059624|   -0.000447|
|         494|  -10.506115|  -10.342150|   -0.059624|   -0.000447|
|         495|  -10.516329|  -10.350296|   -0.059625|   -0.000447|
|         496|  -10.526559|  -10.358423|   -0.059625|   -0.000447|
|         497|  -10.536804|  -10.366532|   -0.059625|   -0.000447|
|         498|  -10.547065|  -10.374622|   -0.059625|   -0.000447|
|         499|  -10.557341|  -10.382694|   -0.059626|   -0.000447|
|         500|  -10.567632|  -10.390747|   -0.059626|   -0.000447|
+-----------------------------------------------------------------------+
|        File Writing Summary       |              Filename             |
+-----------------------------------------------------------------------+
|SU2 restart                        |restart_flow.dat                   |
|Paraview                           |flow.vtu                           |
|Paraview surface                   |surface_flow.vtu                   |
|CSV file                           |surface_flow.csv                   |
+-----------------------------------------------------------------------+
+----------------------------------------------------------------+
|  Inner_Iter|    rms[Rho]|   rms[RhoE]|          CL|          CD|
+----------------------------------------------------------------+
|         501|  -10.577937|  -10.398782|   -0.059626|   -0.000447|
|         502|  -10.588256|  -10.406799|   -0.059626|   -0.000447|
|         503|  -10.598588|  -10.414795|   -0.059627|   -0.000447|
|         504|  -10.608934|  -10.422773|   -0.059627|   -0.000447|
|         505|  -10.619292|  -10.430730|   -0.059627|   -0.000447|
|         506|  -10.629662|  -10.438668|   -0.059627|   -0.000447|
|         507|  -10.640044|  -10.446584|   -0.059628|   -0.000447|
|         508|  -10.650437|  -10.454480|   -0.059628|   -0.000447|
|         509|  -10.660840|  -10.462354|   -0.059628|   -0.000447|
|         510|  -10.671254|  -10.470207|   -0.059628|   -0.000447|
|         511|  -10.681677|  -10.478036|   -0.059629|   -0.000447|
|         512|  -10.692109|  -10.485843|   -0.059629|   -0.000447|
|         513|  -10.702549|  -10.493627|   -0.059629|   -0.000447|
|         514|  -10.712996|  -10.501386|   -0.059629|   -0.000447|
|         515|  -10.723451|  -10.509122|   -0.059629|   -0.000447|
|         516|  -10.733912|  -10.516835|   -0.059630|   -0.000447|
|         517|  -10.744379|  -10.524524|   -0.059630|   -0.000447|
|         518|  -10.754852|  -10.532188|   -0.059630|   -0.000447|
|         519|  -10.765329|  -10.539829|   -0.059630|   -0.000447|
|         520|  -10.775809|  -10.547445|   -0.059630|   -0.000447|
|         521|  -10.786293|  -10.555037|   -0.059631|   -0.000447|
|         522|  -10.796780|  -10.562606|   -0.059631|   -0.000447|
|         523|  -10.807269|  -10.570151|   -0.059631|   -0.000447|
|         524|  -10.817759|  -10.577673|   -0.059631|   -0.000447|
|         525|  -10.828249|  -10.585172|   -0.059631|   -0.000447|
|         526|  -10.838740|  -10.592648|   -0.059631|   -0.000447|
|         527|  -10.849230|  -10.600101|   -0.059632|   -0.000447|
|         528|  -10.859719|  -10.607532|   -0.059632|   -0.000447|
|         529|  -10.870206|  -10.614940|   -0.059632|   -0.000447|
|         530|  -10.880690|  -10.622326|   -0.059632|   -0.000447|
|         531|  -10.891171|  -10.629691|   -0.059632|   -0.000447|
|         532|  -10.901647|  -10.637032|   -0.059632|   -0.000447|
|         533|  -10.912119|  -10.644352|   -0.059633|   -0.000447|
|         534|  -10.922584|  -10.651649|   -0.059633|   -0.000447|
|         535|  -10.933042|  -10.658923|   -0.059633|   -0.000447|
|         536|  -10.943493|  -10.666176|   -0.059633|   -0.000447|
|         537|  -10.953936|  -10.673406|   -0.059633|   -0.000447|
|         538|  -10.964370|  -10.680614|   -0.059633|   -0.000447|
|         539|  -10.974793|  -10.687799|   -0.059634|   -0.000447|
|         540|  -10.985206|  -10.694962|   -0.059634|   -0.000447|
|         541|  -10.995606|  -10.702101|   -0.059634|   -0.000447|
|         542|  -11.005993|  -10.709218|   -0.059634|   -0.000447|
|         543|  -11.016367|  -10.716313|   -0.059634|   -0.000447|
|         544|  -11.026726|  -10.723386|   -0.059634|   -0.000447|
|         545|  -11.037070|  -10.730436|   -0.059634|   -0.000447|
|         546|  -11.047397|  -10.737463|   -0.059635|   -0.000447|
|         547|  -11.057708|  -10.744469|   -0.059635|   -0.000447|
|         548|  -11.068000|  -10.751453|   -0.059635|   -0.000447|
|         549|  -11.078274|  -10.758416|   -0.059635|   -0.000447|
|         550|  -11.088527|  -10.765357|   -0.059635|   -0.000447|
|         551|  -11.098760|  -10.772279|   -0.059635|   -0.000447|
|         552|  -11.108972|  -10.779179|   -0.059635|   -0.000447|
|         553|  -11.119162|  -10.786061|   -0.059635|   -0.000447|
|         554|  -11.129329|  -10.792922|   -0.059636|   -0.000447|
|         555|  -11.139473|  -10.799765|   -0.059636|   -0.000447|
|         556|  -11.149592|  -10.806589|   -0.059636|   -0.000447|
|         557|  -11.159685|  -10.813394|   -0.059636|   -0.000447|
|         558|  -11.169752|  -10.820181|   -0.059636|   -0.000447|
|         559|  -11.179793|  -10.826951|   -0.059636|   -0.000447|
|         560|  -11.189805|  -10.833703|   -0.059636|   -0.000447|
|         561|  -11.199789|  -10.840438|   -0.059636|   -0.000447|
|         562|  -11.209744|  -10.847155|   -0.059636|   -0.000447|
|         563|  -11.219668|  -10.853856|   -0.059637|   -0.000447|
|         564|  -11.229560|  -10.860539|   -0.059637|   -0.000447|
|         565|  -11.239421|  -10.867206|   -0.059637|   -0.000447|
|         566|  -11.249248|  -10.873856|   -0.059637|   -0.000447|
|         567|  -11.259042|  -10.880490|   -0.059637|   -0.000447|
|         568|  -11.268802|  -10.887107|   -0.059637|   -0.000447|
|         569|  -11.278525|  -10.893708|   -0.059637|   -0.000447|
|         570|  -11.288212|  -10.900293|   -0.059637|   -0.000447|
|         571|  -11.297862|  -10.906862|   -0.059637|   -0.000447|
|         572|  -11.307474|  -10.913414|   -0.059638|   -0.000447|
|         573|  -11.317048|  -10.919952|   -0.059638|   -0.000447|
|         574|  -11.326583|  -10.926473|   -0.059638|   -0.000447|
|         575|  -11.336077|  -10.932980|   -0.059638|   -0.000447|
|         576|  -11.345531|  -10.939471|   -0.059638|   -0.000447|
|         577|  -11.354944|  -10.945948|   -0.059638|   -0.000447|
|         578|  -11.364316|  -10.952410|   -0.059638|   -0.000447|
|         579|  -11.373645|  -10.958858|   -0.059638|   -0.000447|
|         580|  -11.382932|  -10.965293|   -0.059638|   -0.000447|
|         581|  -11.392177|  -10.971715|   -0.059638|   -0.000447|
|         582|  -11.401378|  -10.978124|   -0.059638|   -0.000447|
|         583|  -11.410537|  -10.984522|   -0.059638|   -0.000447|
|         584|  -11.419650|  -10.990905|   -0.059639|   -0.000447|
|         585|  -11.428722|  -10.997279|   -0.059639|   -0.000447|
|         586|  -11.437748|  -11.003640|   -0.059639|   -0.000447|
|         587|  -11.446730|  -11.009992|   -0.059639|   -0.000447|
|         588|  -11.455669|  -11.016333|   -0.059639|   -0.000447|
|         589|  -11.464562|  -11.022663|   -0.059639|   -0.000447|
|         590|  -11.473411|  -11.028985|   -0.059639|   -0.000447|
|         591|  -11.482214|  -11.035296|   -0.059639|   -0.000447|
|         592|  -11.490971|  -11.041596|   -0.059639|   -0.000447|
|         593|  -11.499685|  -11.047889|   -0.059639|   -0.000447|
|         594|  -11.508352|  -11.054171|   -0.059639|   -0.000447|
|         595|  -11.516974|  -11.060445|   -0.059639|   -0.000447|
|         596|  -11.525550|  -11.066709|   -0.059639|   -0.000447|
|         597|  -11.534079|  -11.072964|   -0.059640|   -0.000447|
|         598|  -11.542564|  -11.079210|   -0.059640|   -0.000447|
|         599|  -11.551002|  -11.085449|   -0.059640|   -0.000447|
|         600|  -11.559394|  -11.091677|   -0.059640|   -0.000447|
|         601|  -11.567738|  -11.097895|   -0.059640|   -0.000447|
|         602|  -11.576039|  -11.104108|   -0.059640|   -0.000447|
|         603|  -11.584293|  -11.110310|   -0.059640|   -0.000447|
|         604|  -11.592501|  -11.116504|   -0.059640|   -0.000447|
|         605|  -11.600664|  -11.122691|   -0.059640|   -0.000447|
|         606|  -11.608781|  -11.128868|   -0.059640|   -0.000447|
|         607|  -11.616854|  -11.135039|   -0.059640|   -0.000447|
|         608|  -11.624881|  -11.141202|   -0.059640|   -0.000447|
|         609|  -11.632864|  -11.147356|   -0.059640|   -0.000447|
|         610|  -11.640804|  -11.153505|   -0.059640|   -0.000447|
|         611|  -11.648701|  -11.159648|   -0.059640|   -0.000447|
|         612|  -11.656554|  -11.165781|   -0.059640|   -0.000447|
|         613|  -11.664363|  -11.171908|   -0.059641|   -0.000447|
|         614|  -11.672135|  -11.178035|   -0.059641|   -0.000447|
|         615|  -11.679864|  -11.184152|   -0.059641|   -0.000447|
|         616|  -11.687552|  -11.190264|   -0.059641|   -0.000447|
|         617|  -11.695200|  -11.196371|   -0.059641|   -0.000447|
|         618|  -11.702809|  -11.202474|   -0.059641|   -0.000447|
|         619|  -11.710379|  -11.208572|   -0.059641|   -0.000447|
|         620|  -11.717912|  -11.214666|   -0.059641|   -0.000447|
|         621|  -11.725408|  -11.220758|   -0.059641|   -0.000447|
|         622|  -11.732866|  -11.226843|   -0.059641|   -0.000447|
|         623|  -11.740286|  -11.232923|   -0.059641|   -0.000447|
|         624|  -11.747671|  -11.239001|   -0.059641|   -0.000447|
|         625|  -11.755023|  -11.245077|   -0.059641|   -0.000447|
|         626|  -11.762339|  -11.251148|   -0.059641|   -0.000447|
|         627|  -11.769620|  -11.257215|   -0.059641|   -0.000447|
|         628|  -11.776868|  -11.263280|   -0.059641|   -0.000447|
|         629|  -11.784084|  -11.269341|   -0.059641|   -0.000447|
|         630|  -11.791265|  -11.275397|   -0.059641|   -0.000447|
|         631|  -11.798415|  -11.281451|   -0.059641|   -0.000447|
|         632|  -11.805532|  -11.287501|   -0.059641|   -0.000447|
|         633|  -11.812618|  -11.293547|   -0.059641|   -0.000447|
|         634|  -11.819673|  -11.299589|   -0.059642|   -0.000447|
|         635|  -11.826698|  -11.305627|   -0.059642|   -0.000447|
|         636|  -11.833695|  -11.311665|   -0.059642|   -0.000447|
|         637|  -11.840659|  -11.317694|   -0.059642|   -0.000447|
|         638|  -11.847597|  -11.323725|   -0.059642|   -0.000447|
|         639|  -11.854510|  -11.329754|   -0.059642|   -0.000447|
|         640|  -11.861391|  -11.335776|   -0.059642|   -0.000447|
|         641|  -11.868248|  -11.341796|   -0.059642|   -0.000447|
|         642|  -11.875080|  -11.347816|   -0.059642|   -0.000447|
|         643|  -11.881884|  -11.353830|   -0.059642|   -0.000447|
|         644|  -11.888669|  -11.359848|   -0.059642|   -0.000447|
|         645|  -11.895424|  -11.365855|   -0.059642| 