
-------------------------------------------------------------------------
|    ___ _   _ ___                                                      |
|   / __| | | |_  )   Release 7.0.5 "Blackbird"                         |
|   \__ \ |_| |/ /                                                      |
|   |___/\___//___|   Suite (Computational Fluid Dynamics Code)         |
|                                                                       |
-------------------------------------------------------------------------
| SU2 Project Website: https://su2code.github.io                        |
|                                                                       |
| The SU2 Project is maintained by the SU2 Foundation                   |
| (http://su2foundation.org)                                            |
-------------------------------------------------------------------------
| Copyright 2012-2020, SU2 Contributors                                 |
|                                                                       |
| SU2 is free software; you can redistribute it and/or                  |
| modify it under the terms of the GNU Lesser General Public            |
| License as published by the Free Software Foundation; either          |
| version 2.1 of the License, or (at your option) any later version.    |
|                                                                       |
| SU2 is distributed in the hope that it will be useful,                |
| but WITHOUT ANY WARRANTY; without even the implied warranty of        |
| MERCHANTABILITY or FITNESS FOR A PARTICULAR PURPOSE. See the GNU      |
| Lesser General Public License for more details.                       |
|                                                                       |
| You should have received a copy of the GNU Lesser General Public      |
| License along with SU2. If not, see <http://www.gnu.org/licenses/>.   |
-------------------------------------------------------------------------

Parsing config file for zone 0

----------------- Physical Case Definition ( Zone 0 ) -------------------
Compressible Euler equations.
Mach number: 0.2.
Angle of attack (AoA): -0.5 deg, and angle of sideslip (AoS): 0 deg.
No restart solution, use the values at infinity (freestream).
Non-Dimensional simulation (P=1.0, Rho=1.0, T=1.0 at the farfield).
The reference area is 1 m^2.
The semi-span will be computed using the max y(3D) value.
The reference length is 1 m.
Reference origin for moment evaluation is (0.25, 0, 0).
Surface(s) where the force coefficients are evaluated: airfoil.

Surface(s) plotted in the output file: airfoil.
Surface(s) affected by the design variables: airfoil.
Input mesh file name: mesh_NACA0012_inv.su2

--------------- Space Numerical Integration ( Zone 0 ) ------------------
Jameson-Schmidt-Turkel scheme (2nd order in space) for the flow inviscid terms.
JST viscous coefficients (2nd & 4th): 0.5, 0.02.
The method includes a grid stretching correction (p = 0.3).
Gradient for upwind reconstruction: Green-Gauss.
Gradient for viscous and source terms: Green-Gauss.

--------------- Time Numerical Integration  ( Zone 0 ) ------------------
Local time stepping (steady state simulation).
Euler implicit method for the flow equations.
FGMRES is used for solving the linear system.
Using a LU-SGS preconditioning.
Convergence criteria of the linear solver: 0.0001.
Max number of linear iterations: 2.
V Multigrid Cycle, with 2 multigrid levels.
Damping factor for the residual restriction: 1.
Damping factor for the correction prolongation: 1.
No CFL adaptation.
+-------------------------------------------+
|  MG Level| Presmooth|PostSmooth|CorrectSmo|
+-------------------------------------------+
|         0|         1|         0|         0|
|         1|         2|         0|         0|
|         2|         3|         0|         0|
+-------------------------------------------+
Courant-Friedrichs-Lewy number:       10

------------------ Convergence Criteria  ( Zone 0 ) ---------------------
Maximum number of solver subiterations: 1000.
Begin convergence monitoring at iteration 10.
Residual minimum value: 1e-13.
Cauchy series min. value: 1e-06.
Number of Cauchy elements: 100.
Begin windowed time average at iteration 0.

-------------------- Output Information ( Zone 0 ) ----------------------
Writing solution files every 250 iterations.
Writing the convergence history file every 1 inner iterations.
Writing the screen convergence history every 1 inner iterations.
The tabular file format is CSV (.csv).
Convergence history file name: history_direct.
Forces breakdown file name: forces_breakdown.dat.
Surface file name: surface_flow.
Volume file name: flow.
Restart file name: restart_flow.dat.

------------- Config File Boundary Information ( Zone 0 ) ---------------
+-----------------------------------------------------------------------+
|                        Marker Type|                        Marker Name|
+-----------------------------------------------------------------------+
|                         Euler wall|                            airfoil|
+-----------------------------------------------------------------------+
|                          Far-field|                           farfield|
+-----------------------------------------------------------------------+

-------------------- Output Preprocessing ( Zone 0 ) --------------------
Screen output fields: INNER_ITER, RMS_DENSITY, RMS_ENERGY, LIFT, DRAG
History output group(s): ITER, RMS_RES, AERO_COEFF
Convergence field(s): RMS_DENSITY
Warning: No (valid) fields chosen for time convergence monitoring. Time convergence monitoring inactive.
Volume output fields: COORDINATES, SOLUTION, PRIMITIVE

------------------- Geometry Preprocessing ( Zone 0 ) -------------------
Two dimensional problem.
5233 grid points.
10216 volume elements.
2 surface markers.
200 boundary elements in index 0 (Marker = airfoil).
50 boundary elements in index 1 (Marker = farfield).
10216 triangles.
Setting point connectivity.
Renumbering points (Reverse Cuthill McKee Ordering).
Recomputing point connectivity.
Setting element connectivity.
Checking the numerical grid orientation.
Identifying edges and vertices.
Computing centers of gravity.
Setting the control volume structure.
Area of the computational grid: 1253.25.
Searching for the closest normal neighbors to the surfaces.
Storing a mapping from global to local point index.
Compute the surface curvature.
Max K: 7835.1. Mean K: 34.8252. Standard deviation K: 494.448.
Checking for periodicity.
Computing mesh quality statistics for the dual control volumes.
+--------------------------------------------------------------+
|           Mesh Quality Metric|        Minimum|        Maximum|
+--------------------------------------------------------------+
|    Orthogonality Angle (deg.)|        62.6714|        89.7089|
|     CV Face Area Aspect Ratio|        1.00001|        7.18337|
|           CV Sub-Volume Ratio|        1.00285|        6.47826|
+--------------------------------------------------------------+
Setting the multigrid structure.
+-------------------------------------------+
|  MG Level|       CVs|Aggl. Rate|       CFL|
+-------------------------------------------+
|         0|      5233|    1/1.00|        10|
|         1|      1533|    1/3.41|   8.11871|
|         2|       443|    1/3.46|    6.5465|
+-------------------------------------------+
Finding max control volume width.
Wetted area = 2.03916 m.
Area projection in the x-plane = 0.119981 m, y-plane = 0.999845 m.
Max. coordinate in the x-direction = 1 m, y-direction = 0.0600055 m.
Min. coordinate in the x-direction = 0 m, y-direction = -0.0600055 m.
Checking if Euler & Symmetry markers are straight/plane:
Boundary marker airfoil is NOT a single straight.
Computing wall distances.

-------------------- Solver Preprocessing ( Zone 0 ) --------------------
Inviscid flow: Computing density based on free-stream
temperature and pressure using the ideal gas law.
Force coefficients computed using free-stream values.

-- Models:
+------------------------------------------------------------------------------+
|          Viscosity Model|        Conductivity Model|              Fluid Model|
+------------------------------------------------------------------------------+
|                        -|                         -|             STANDARD_AIR|
+------------------------------------------------------------------------------+
-- Fluid properties:
+------------------------------------------------------------------------------+
|                  Name|    Dim. value|    Ref. value|      Unit|Non-dim. value|
+------------------------------------------------------------------------------+
|          Gas Constant|       287.058|       287.058|  N.m/kg.K|             1|
|      Spec. Heat Ratio|             -|             -|         -|           1.4|
+------------------------------------------------------------------------------+
-- Initial and free-stream conditions:
+------------------------------------------------------------------------------+
|                  Name|    Dim. value|    Ref. value|      Unit|Non-dim. value|
+------------------------------------------------------------------------------+
|       Static Pressure|        101325|        101325|        Pa|             1|
|               Density|       1.22498|       1.22498|    kg/m^3|             1|
|           Temperature|        288.15|        288.15|         K|             1|
|          Total Energy|        209105|       82715.8|   m^2/s^2|         2.528|
|            Velocity-X|       68.0568|       287.603|       m/s|      0.236634|
|            Velocity-Y|     -0.593923|       287.603|       m/s|   -0.00206508|
|    Velocity Magnitude|       68.0594|       287.603|       m/s|      0.236643|
+------------------------------------------------------------------------------+
|           Mach Number|             -|             -|         -|           0.2|
+------------------------------------------------------------------------------+
Initialize Jacobian structure (Euler). MG level: 0.
Initialize Jacobian structure (Euler). MG level: 1.
Initialize Jacobian structure (Euler). MG level: 2.

------------------- Numerics Preprocessing ( Zone 0 ) -------------------

----------------- Integration Preprocessing ( Zone 0 ) ------------------

------------------- Iteration Preprocessing ( Zone 0 ) ------------------
Euler/Navier-Stokes/RANS fluid iteration.

------------------------------ Begin Solver -----------------------------

Simulation Run using the Single-zone Driver
+----------------------------------------------------------------+
|  Inner_Iter|    rms[Rho]|   rms[RhoE]|          CL|          CD|
+----------------------------------------------------------------+
|           0|   -4.192894|   -3.645365|   -0.283481|    0.741900|
|           1|   -4.313922|   -3.758355|    0.025374|   -0.019911|
|           2|   -4.428525|   -3.877417|    0.058465|   -0.126035|
|           3|   -4.423287|   -3.865843|    0.002252|   -0.028446|
|           4|   -4.361686|   -3.811171|   -0.072086|    0.070309|
|           5|   -4.387262|   -3.838500|   -0.070476|    0.069690|
|           6|   -4.476777|   -3.921725|   -0.017658|   -0.011297|
|           7|   -4.419124|   -3.871881|   -0.009406|   -0.041002|
|           8|   -4.672152|   -4.116837|   -0.042320|    0.008974|
|           9|   -4.554731|   -4.006254|   -0.056676|    0.037329|
|          10|   -4.832954|   -4.283359|   -0.045045|    0.004485|
|          11|   -4.797047|   -4.245328|   -0.035807|   -0.022819|
|          12|   -4.885915|   -4.338579|   -0.039598|   -0.005444|
|          13|   -5.113591|   -4.558771|   -0.047445|    0.018181|
|          14|   -5.019332|   -4.469588|   -0.050204|    0.009924|
|          15|   -5.265302|   -4.717551|   -0.047400|   -0.011232|
|          16|   -5.270039|   -4.718265|   -0.044834|   -0.010530|
|          17|   -5.357725|   -4.811169|   -0.045466|    0.006540|
|          18|   -5.549262|   -4.997095|   -0.047704|    0.011009|
|          19|   -5.526860|   -4.976489|   -0.049776|   -0.000675|
|          20|   -5.657126|   -5.108522|   -0.050384|   -0.007813|
|          21|   -5.649319|   -5.100896|   -0.049172|   -0.001585|
|          22|   -5.688508|   -5.144108|   -0.047766|    0.005289|
|          23|   -5.797317|   -5.249370|   -0.048476|    0.002666|
|          24|   -5.688878|   -5.142091|   -0.050988|   -0.002609|
|          25|   -5.833972|   -5.286822|   -0.052039|   -0.002088|
|          26|   -5.760601|   -5.211482|   -0.050354|    0.001381|
|          27|   -5.808578|   -5.263417|   -0.048856|    0.001686|
|          28|   -5.930098|   -5.379597|   -0.049938|   -0.000534|
|          29|   -5.852473|   -5.304744|   -0.051958|   -0.001085|
|          30|   -6.006520|   -5.459912|   -0.052221|    0.000368|
|          31|   -5.974098|   -5.426432|   -0.050953|    0.000992|
|          32|   -6.030418|   -5.485734|   -0.050497|    0.000027|
|          33|   -6.129765|   -5.582325|   -0.051545|   -0.000698|
|          34|   -6.119036|   -5.571676|   -0.052649|   -0.000179|
|          35|   -6.192319|   -5.645656|   -0.052690|    0.000576|
|          36|   -6.224969|   -5.677217|   -0.052166|    0.000474|
|          37|   -6.250847|   -5.705177|   -0.052128|   -0.000180|
|          38|   -6.289921|   -5.746005|   -0.052709|   -0.000429|
|          39|   -6.310171|   -5.765714|   -0.053276|   -0.000082|
|          40|   -6.336651|   -5.790665|   -0.053369|    0.000304|
|          41|   -6.358805|   -5.812150|   -0.053185|    0.000233|
|          42|   -6.378482|   -5.832686|   -0.053240|   -0.000083|
|          43|   -6.410603|   -5.864589|   -0.053610|   -0.000183|
|          44|   -6.428120|   -5.880733|   -0.053953|   -0.000015|
|          45|   -6.448702|   -5.900359|   -0.054050|    0.000125|
|          46|   -6.473543|   -5.924169|   -0.054046|    0.000073|
|          47|   -6.486543|   -5.936425|   -0.054174|   -0.000038|
|          48|   -6.520644|   -5.970103|   -0.054453|   -0.000045|
|          49|   -6.553748|   -6.002969|   -0.054707|    0.000026|
|          50|   -6.571995|   -6.020891|   -0.054821|    0.000049|
|          51|   -6.599799|   -6.047097|   -0.054879|    0.000004|
|          52|   -6.623480|   -6.069258|   -0.054992|   -0.000033|
|          53|   -6.647748|   -6.093803|   -0.055168|   -0.000016|
|          54|   -6.681348|   -6.128738|   -0.055342|    0.000020|
|          55|   -6.712071|   -6.160510|   -0.055462|    0.000025|
|          56|   -6.739316|   -6.187719|   -0.055540|   -0.000005|
|          57|   -6.766694|   -6.214516|   -0.055621|   -0.000031|
|          58|   -6.793722|   -6.241674|   -0.055732|   -0.000025|
|          59|   -6.822914|   -6.272101|   -0.055859|   -0.000001|
|          60|   -6.853861|   -6.304793|   -0.055976|    0.000009|
|          61|   -6.883527|   -6.336189|   -0.056072|   -0.000003|
|          62|   -6.911259|   -6.365729|   -0.056162|   -0.000020|
|          63|   -6.937830|   -6.394528|   -0.056259|   -0.000023|
|          64|   -6.964685|   -6.424131|   -0.056364|   -0.000013|
|          65|   -6.992930|   -6.455492|   -0.056471|   -0.000006|
|          66|   -7.021280|   -6.487224|   -0.056572|   -0.000008|
|          67|   -7.049075|   -6.518739|   -0.056668|   -0.000015|
|          68|   -7.076862|   -6.550514|   -0.056762|   -0.000018|
|          69|   -7.103572|   -6.581029|   -0.056856|   -0.000016|
|          70|   -7.129402|   -6.610376|   -0.056948|   -0.000014|
|          71|   -7.155436|   -6.640022|   -0.057039|   -0.000015|
|          72|   -7.180991|   -6.669463|   -0.057128|   -0.000018|
|          73|   -7.206944|   -6.699712|   -0.057214|   -0.000020|
|          74|   -7.234510|   -6.731978|   -0.057297|   -0.000019|
|          75|   -7.261973|   -6.764153|   -0.057379|   -0.000019|
|          76|   -7.287870|   -6.794647|   -0.057462|   -0.000021|
|          77|   -7.312598|   -6.824039|   -0.057543|   -0.000023|
|          78|   -7.336970|   -6.853208|   -0.057623|   -0.000024|
|          79|   -7.361694|   -6.882923|   -0.057701|   -0.000023|
|          80|   -7.386599|   -6.912973|   -0.057779|   -0.000023|
|          81|   -7.410809|   -6.942264|   -0.057856|   -0.000024|
|          82|   -7.433936|   -6.970266|   -0.057931|   -0.000025|
|          83|   -7.456319|   -6.997312|   -0.058005|   -0.000026|
|          84|   -7.478462|   -7.023942|   -0.058076|   -0.000026|
|          85|   -7.500542|   -7.050346|   -0.058145|   -0.000026|
|          86|   -7.522393|   -7.076356|   -0.058212|   -0.000026|
|          87|   -7.543919|   -7.101949|   -0.058277|   -0.000027|
|          88|   -7.565200|   -7.127271|   -0.058339|   -0.000028|
|          89|   -7.586271|   -7.152344|   -0.058399|   -0.000029|
|          90|   -7.607079|   -7.177141|   -0.058456|   -0.000029|
|          91|   -7.627474|   -7.201606|   -0.058511|   -0.000030|
|          92|   -7.647366|   -7.225785|   -0.058564|   -0.000031|
|          93|   -7.666788|   -7.249808|   -0.058615|   -0.000032|
|          94|   -7.685638|   -7.273438|   -0.058665|   -0.000032|
|          95|   -7.703722|   -7.296229|   -0.058712|   -0.000033|
|          96|   -7.721011|   -7.318071|   -0.058758|   -0.000033|
|          97|   -7.737603|   -7.339106|   -0.058802|   -0.000034|
|          98|   -7.753579|   -7.359432|   -0.058846|   -0.000035|
|          99|   -7.768965|   -7.379018|   -0.058888|   -0.000035|
|         100|   -7.783743|   -7.397731|   -0.058928|   -0.000036|
|         101|   -7.797926|   -7.415506|   -0.058967|   -0.000036|
|         102|   -7.811607|   -7.432452|   -0.059005|   -0.000037|
|         103|   -7.824918|   -7.448774|   -0.059042|   -0.000037|
|         104|   -7.837960|   -7.464648|   -0.059078|   -0.000037|
|         105|   -7.850783|   -7.480169|   -0.059113|   -0.000038|
|         106|   -7.863402|   -7.495376|   -0.059147|   -0.000038|
|         107|   -7.875833|   -7.510295|   -0.059180|   -0.000038|
|         108|   -7.888099|   -7.524945|   -0.059212|   -0.000039|
|         109|   -7.900217|   -7.539339|   -0.059243|   -0.000039|
|         110|   -7.912191|   -7.553476|   -0.059274|   -0.000039|
|         111|   -7.924013|   -7.567345|   -0.059304|   -0.000040|
|         112|   -7.935674|   -7.580925|   -0.059333|   -0.000040|
|         113|   -7.947169|   -7.594166|   -0.059361|   -0.000040|
|         114|   -7.958489|   -7.607004|   -0.059389|   -0.000041|
|         115|   -7.969626|   -7.619390|   -0.059416|   -0.000041|
|         116|   -7.980578|   -7.631315|   -0.059442|   -0.000041|
|         117|   -7.991349|   -7.642804|   -0.059467|   -0.000041|
|         118|   -8.001952|   -7.653906|   -0.059492|   -0.000041|
|         119|   -8.012406|   -7.664674|   -0.059516|   -0.000042|
|         120|   -8.022734|   -7.675156|   -0.059540|   -0.000042|
|         121|   -8.032952|   -7.685400|   -0.059563|   -0.000042|
|         122|   -8.043077|   -7.695448|   -0.059585|   -0.000042|
|         123|   -8.053114|   -7.705326|   -0.059607|   -0.000042|
|         124|   -8.063062|   -7.715045|   -0.059629|   -0.000043|
|         125|   -8.072916|   -7.724598|   -0.059650|   -0.000043|
|         126|   -8.082667|   -7.733976|   -0.059670|   -0.000043|
|         127|   -8.092312|   -7.743169|   -0.059690|   -0.000043|
|         128|   -8.101848|   -7.752179|   -0.059710|   -0.000043|
|         129|   -8.111272|   -7.761012|   -0.059729|   -0.000043|
|         130|   -8.120585|   -7.769677|   -0.059748|   -0.000043|
|         131|   -8.129786|   -7.778189|   -0.059766|   -0.000044|
|         132|   -8.138879|   -7.786566|   -0.059784|   -0.000044|
|         133|   -8.147870|   -7.794830|   -0.059802|   -0.000044|
|         134|   -8.156763|   -7.802999|   -0.059819|   -0.000044|
|         135|   -8.165562|   -7.811093|   -0.059836|   -0.000044|
|         136|   -8.174271|   -7.819129|   -0.059852|   -0.000044|
|         137|   -8.182887|   -7.827120|   -0.059869|   -0.000044|
|         138|   -8.191412|   -7.835072|   -0.059884|   -0.000044|
|         139|   -8.199842|   -7.842988|   -0.059900|   -0.000044|
|         140|   -8.208172|   -7.850864|   -0.059915|   -0.000044|
|         141|   -8.216398|   -7.858696|   -0.059930|   -0.000044|
|         142|   -8.224517|   -7.866481|   -0.059944|   -0.000044|
|         143|   -8.232524|   -7.874215|   -0.059959|   -0.000044|
|         144|   -8.240416|   -7.881897|   -0.059972|   -0.000044|
|         145|   -8.248194|   -7.889527|   -0.059986|   -0.000044|
|         146|   -8.255856|   -7.897108|   -0.059999|   -0.000044|
|         147|   -8.263406|   -7.904643|   -0.060012|   -0.000044|
|         148|   -8.270846|   -7.912141|   -0.060025|   -0.000044|
|         149|   -8.278181|   -7.919609|   -0.060038|   -0.000044|
|         150|   -8.285414|   -7.927057|   -0.060050|   -0.000044|
|         151|   -8.292552|   -7.934496|   -0.060062|   -0.000044|
|         152|   -8.299599|   -7.941935|   -0.060073|   -0.000044|
|         153|   -8.306560|   -7.949382|   -0.060085|   -0.000044|
|         154|   -8.313443|   -7.956847|   -0.060096|   -0.000044|
|         155|   -8.320251|   -7.964336|   -0.060107|   -0.000044|
|         156|   -8.326989|   -7.971853|   -0.060118|   -0.000044|
|         157|   -8.333663|   -7.979402|   -0.060128|   -0.000044|
|         158|   -8.340277|   -7.986985|   -0.060138|   -0.000044|
|         159|   -8.346835|   -7.994601|   -0.060148|   -0.000044|
|         160|   -8.353341|   -8.002250|   -0.060158|   -0.000044|
|         161|   -8.359799|   -8.009931|   -0.060168|   -0.000044|
|         162|   -8.366215|   -8.017644|   -0.060177|   -0.000044|
|         163|   -8.372592|   -8.025389|   -0.060187|   -0.000044|
|         164|   -8.378936|   -8.033167|   -0.060196|   -0.000044|
|         165|   -8.385252|   -8.040978|   -0.060204|   -0.000044|
|         166|   -8.391545|   -8.048825|   -0.060213|   -0.000044|
|         167|   -8.397821|   -8.056709|   -0.060222|   -0.000044|
|         168|   -8.404086|   -8.064634|   -0.060230|   -0.000044|
|         169|   -8.410344|   -8.072602|   -0.060238|   -0.000044|
|         170|   -8.416602|   -8.080615|   -0.060246|   -0.000044|
|         171|   -8.422862|   -8.088677|   -0.060254|   -0.000044|
|         172|   -8.429131|   -8.096787|   -0.060261|   -0.000044|
|         173|   -8.435412|   -8.104949|   -0.060269|   -0.000044|
|         174|   -8.441708|   -8.113162|   -0.060276|   -0.000044|
|         175|   -8.448025|   -8.121427|   -0.060283|   -0.000044|
|         176|   -8.454364|   -8.129745|   -0.060290|   -0.000044|
|         177|   -8.460728|   -8.138114|   -0.060297|   -0.000044|
|         178|   -8.467122|   -8.146537|   -0.060303|   -0.000044|
|         179|   -8.473547|   -8.155011|   -0.060310|   -0.000044|
|         180|   -8.480006|   -8.163538|   -0.060316|   -0.000044|
|         181|   -8.486501|   -8.172117|   -0.060322|   -0.000044|
|         182|   -8.493036|   -8.180749|   -0.060328|   -0.000044|
|         183|   -8.499612|   -8.189433|   -0.060334|   -0.000044|
|         184|   -8.506231|   -8.198171|   -0.060340|   -0.000044|
|         185|   -8.512897|   -8.206963|   -0.060346|   -0.000044|
|         186|   -8.519610|   -8.215809|   -0.060352|   -0.000043|
|         187|   -8.526372|   -8.224710|   -0.060357|   -0.000043|
|         188|   -8.533186|   -8.233666|   -0.060362|   -0.000043|
|         189|   -8.540053|   -8.242678|   -0.060368|   -0.000043|
|         190|   -8.546974|   -8.251745|   -0.060373|   -0.000043|
|         191|   -8.553950|   -8.260868|   -0.060378|   -0.000043|
|         192|   -8.560983|   -8.270046|   -0.060383|   -0.000043|
|         193|   -8.568074|   -8.279279|   -0.060387|   -0.000043|
|         194|   -8.575224|   -8.288568|   -0.060392|   -0.000043|
|         195|   -8.582433|   -8.297912|   -0.060397|   -0.000043|
|         196|   -8.589702|   -8.307310|   -0.060401|   -0.000043|
|         197|   -8.597033|   -8.316764|   -0.060405|   -0.000043|
|         198|   -8.604425|   -8.326273|   -0.060410|   -0.000043|
|         199|   -8.611880|   -8.335836|   -0.060414|   -0.000043|
|         200|   -8.619398|   -8.345454|   -0.060418|   -0.000043|
|         201|   -8.626979|   -8.355127|   -0.060422|   -0.000043|
|         202|   -8.634625|   -8.364854|   -0.060426|   -0.000043|
|         203|   -8.642335|   -8.374636|   -0.060430|   -0.000043|
|         204|   -8.650110|   -8.384472|   -0.060433|   -0.000043|
|         205|   -8.657950|   -8.394363|   -0.060437|   -0.000043|
|         206|   -8.665856|   -8.404307|   -0.060441|   -0.000043|
|         207|   -8.673827|   -8.414305|   -0.060444|   -0.000043|
|         208|   -8.681865|   -8.424357|   -0.060448|   -0.000043|
|         209|   -8.689968|   -8.434462|   -0.060451|   -0.000043|
|         210|   -8.698138|   -8.444619|   -0.060454|   -0.000043|
|         211|   -8.706374|   -8.454829|   -0.060457|   -0.000043|
|         212|   -8.714677|   -8.465092|   -0.060461|   -0.000043|
|         213|   -8.723046|   -8.475407|   -0.060464|   -0.000042|
|         214|   -8.731482|   -8.485773|   -0.060467|   -0.000042|
|         215|   -8.739984|   -8.496191|   -0.060470|   -0.000042|
|         216|   -8.748553|   -8.506661|   -0.060472|   -0.000042|
|         217|   -8.757189|   -8.517182|   -0.060475|   -0.000042|
|         218|   -8.765891|   -8.527755|   -0.060478|   -0.000042|
|         219|   -8.774660|   -8.538378|   -0.060481|   -0.000042|
|         220|   -8.783496|   -8.549053|   -0.060483|   -0.000042|
|         221|   -8.792398|   -8.559779|   -0.060486|   -0.000042|
|         222|   -8.801367|   -8.570556|   -0.060488|   -0.000042|
|         223|   -8.810403|   -8.581383|   -0.060491|   -0.000042|
|         224|   -8.819505|   -8.592260|   -0.060493|   -0.000042|
|         225|   -8.828674|   -8.603187|   -0.060495|   -0.000042|
|         226|   -8.837908|   -8.614165|   -0.060498|   -0.000042|
|         227|   -8.847209|   -8.625191|   -0.060500|   -0.000042|
|         228|   -8.856576|   -8.636267|   -0.060502|   -0.000042|
|         229|   -8.866008|   -8.647392|   -0.060504|   -0.000042|
|         230|   -8.875506|   -8.658565|   -0.060506|   -0.000042|
|         231|   -8.885070|   -8.669787|   -0.060508|   -0.000042|
|         232|   -8.894699|   -8.681056|   -0.060510|   -0.000042|
|         233|   -8.904392|   -8.692374|   -0.060512|   -0.000042|
|         234|   -8.914151|   -8.703739|   -0.060514|   -0.000042|
|         235|   -8.923975|   -8.715151|   -0.060516|   -0.000042|
|         236|   -8.933863|   -8.726610|   -0.060518|   -0.000042|
|         237|   -8.943815|   -8.738117|   -0.060519|   -0.000042|
|         238|   -8.953832|   -8.749670|   -0.060521|   -0.000042|
|         239|   -8.963913|   -8.761269|   -0.060523|   -0.000042|
|         240|   -8.974058|   -8.772915|   -0.060524|   -0.000042|
|         241|   -8.984266|   -8.784607|   -0.060526|   -0.000042|
|         242|   -8.994538|   -8.796345|   -0.060528|   -0.000042|
|         243|   -9.004873|   -8.808128|   -0.060529|   -0.000042|
|         244|   -9.015271|   -8.819956|   -0.060531|   -0.000042|
|         245|   -9.025731|   -8.831830|   -0.060532|   -0.000042|
|         246|   -9.036255|   -8.843748|   -0.060534|   -0.000042|
|         247|   -9.046841|   -8.855710|   -0.060535|   -0.000042|
|         248|   -9.057488|   -8.867716|   -0.060536|   -0.000042|
|         249|   -9.068198|   -8.879767|   -0.060538|   -0.000042|
|         250|   -9.078969|   -8.891860|   -0.060539|   -0.000042|
+-----------------------------------------------------------------------+
|        File Writing Summary       |              Filename             |
+-----------------------------------------------------------------------+
|SU2 restart                        |restart_flow.dat                   |
|Paraview                           |flow.vtu                           |
|Paraview surface                   |surface_flow.vtu                   |
|CSV file                           |surface_flow.csv                   |
+-----------------------------------------------------------------------+
+----------------------------------------------------------------+
|  Inner_Iter|    rms[Rho]|   rms[RhoE]|          CL|          CD|
+----------------------------------------------------------------+
|         251|   -9.089802|   -8.903997|   -0.060540|   -0.000042|
|         252|   -9.100696|   -8.916177|   -0.060541|   -0.000042|
|         253|   -9.111650|   -8.928399|   -0.060543|   -0.000042|
|         254|   -9.122665|   -8.940663|   -0.060544|   -0.000042|
|         255|   -9.133741|   -8.952970|   -0.060545|   -0.000042|
|         256|   -9.144876|   -8.965318|   -0.060546|   -0.000042|
|         257|   -9.156072|   -8.977707|   -0.060547|   -0.000042|
|         258|   -9.167327|   -8.990138|   -0.060548|   -0.000042|
|         259|   -9.178642|   -9.002609|   -0.060549|   -0.000042|
|         260|   -9.190015|   -9.015120|   -0.060550|   -0.000041|
|         261|   -9.201448|   -9.027672|   -0.060551|   -0.000041|
|         262|   -9.212939|   -9.040263|   -0.060552|   -0.000041|
|         263|   -9.224489|   -9.052893|   -0.060553|   -0.000041|
|         264|   -9.236096|   -9.065563|   -0.060554|   -0.000041|
|         265|   -9.247762|   -9.078272|   -0.060555|   -0.000041|
|         266|   -9.259485|   -9.091018|   -0.060556|   -0.000041|
|         267|   -9.271265|   -9.103803|   -0.060557|   -0.000041|
|         268|   -9.283102|   -9.116626|   -0.060558|   -0.000041|
|         269|   -9.294997|   -9.129486|   -0.060558|   -0.000041|
|         270|   -9.306947|   -9.142382|   -0.060559|   -0.000041|
|         271|   -9.318955|   -9.155316|   -0.060560|   -0.000041|
|         272|   -9.331018|   -9.168285|   -0.060561|   -0.000041|
|         273|   -9.343137|   -9.181291|   -0.060561|   -0.000041|
|         274|   -9.355311|   -9.194331|   -0.060562|   -0.000041|
|         275|   -9.367541|   -9.207407|   -0.060563|   -0.000041|
|         276|   -9.379826|   -9.220518|   -0.060564|   -0.000041|
|         277|   -9.392165|   -9.233662|   -0.060564|   -0.000041|
|         278|   -9.404559|   -9.246840|   -0.060565|   -0.000041|
|         279|   -9.417008|   -9.260052|   -0.060566|   -0.000041|
|         280|   -9.429510|   -9.273297|   -0.060566|   -0.000041|
|         281|   -9.442066|   -9.286573|   -0.060567|   -0.000041|
|         282|   -9.454675|   -9.299882|   -0.060567|   -0.000041|
|         283|   -9.467338|   -9.313223|   -0.060568|   -0.000041|
|         284|   -9.480053|   -9.326594|   -0.060568|   -0.000041|
|         285|   -9.492822|   -9.339997|   -0.060569|   -0.000041|
|         286|   -9.505642|   -9.353429|   -0.060570|   -0.000041|
|         287|   -9.518515|   -9.366891|   -0.060570|   -0.000041|
|         288|   -9.531439|   -9.380382|   -0.060571|   -0.000041|
|         289|   -9.544416|   -9.393901|   -0.060571|   -0.000041|
|         290|   -9.557443|   -9.407449|   -0.060572|   -0.000041|
|         291|   -9.570522|   -9.421024|   -0.060572|   -0.000041|
|         292|   -9.583652|   -9.434627|   -0.060573|   -0.000041|
|         293|   -9.596832|   -9.448256|   -0.060573|   -0.000041|
|         294|   -9.610062|   -9.461910|   -0.060574|   -0.000041|
|         295|   -9.623343|   -9.475591|   -0.060574|   -0.000041|
|         296|   -9.636673|   -9.489295|   -0.060574|   -0.000041|
|         297|   -9.650053|   -9.503024|   -0.060575|   -0.000041|
|         298|   -9.663482|   -9.516777|   -0.060575|   -0.000041|
|         299|   -9.676960|   -9.530553|   -0.060576|   -0.000041|
|         300|   -9.690487|   -9.544350|   -0.060576|   -0.000041|
|         301|   -9.704062|   -9.558170|   -0.060576|   -0.000041|
|         302|   -9.717685|   -9.572010|   -0.060577|   -0.000041|
|         303|   -9.731356|   -9.585871|   -0.060577|   -0.000041|
|         304|   -9.745075|   -9.599751|   -0.060577|   -0.000041|
|         305|   -9.758842|   -9.613650|   -0.060578|   -0.000041|
|         306|   -9.772655|   -9.627568|   -0.060578|   -0.000041|
|         307|   -9.786515|   -9.641503|   -0.060578|   -0.000041|
|         308|   -9.800421|   -9.655454|   -0.060579|   -0.000041|
|         309|   -9.814374|   -9.669422|   -0.060579|   -0.000041|
|         310|   -9.828373|   -9.683405|   -0.060579|   -0.000041|
|         311|   -9.842417|   -9.697402|   -0.060580|   -0.000041|
|         312|   -9.856507|   -9.711413|   -0.060580|   -0.000041|
|         313|   -9.870641|   -9.725436|   -0.060580|   -0.000041|
|         314|   -9.884821|   -9.739472|   -0.060581|   -0.000041|
|         315|   -9.899044|   -9.753519|   -0.060581|   -0.000041|
|         316|   -9.913312|   -9.767575|   -0.060581|   -0.000041|
|         317|   -9.927624|   -9.781642|   -0.060581|   -0.000041|
|         318|   -9.941979|   -9.795716|   -0.060582|   -0.000041|
|         319|   -9.956378|   -9.809799|   -0.060582|   -0.000041|
|         320|   -9.970819|   -9.823887|   -0.060582|   -0.000041|
|         321|   -9.985303|   -9.837982|   -0.060582|   -0.000041|
|         322|   -9.999829|   -9.852081|   -0.060583|   -0.000041|
|         323|  -10.014396|   -9.866184|   -0.060583|   -0.000041|
|         324|  -10.029006|   -9.880289|   -0.060583|   -0.000041|
|         325|  -10.043656|   -9.894396|   -0.060583|   -0.000041|
|         326|  -10.058347|   -9.908504|   -0.060583|   -0.000041|
|         327|  -10.073079|   -9.922611|   -0.060584|   -0.000041|
|         328|  -10.087850|   -9.936717|   -0.060584|   -0.000041|
|         329|  -10.102662|   -9.950820|   -0.060584|   -0.000041|
|         330|  -10.117512|   -9.964920|   -0.060584|   -0.000041|
|         331|  -10.132401|   -9.979014|   -0.060584|   -0.000041|
|         332|  -10.147329|   -9.993103|   -0.060585|   -0.000041|
|         333|  -10.162295|  -10.007185|   -0.060585|   -0.000041|
|         334|  -10.177298|  -10.021259|   -0.060585|   -0.000041|
|         335|  -10.192339|  -10.035323|   -0.060585|   -0.000041|
|         336|  -10.207416|  -10.049376|   -0.060585|   -0.000041|
|         337|  -10.222530|  -10.063418|   -0.060585|   -0.000041|
|         338|  -10.237679|  -10.077447|   -0.060586|   -0.000041|
|         339|  -10.252863|  -10.091462|   -0.060586|   -0.000041|
|         340|  -10.268083|  -10.105461|   -0.060586|   -0.000041|
|         341|  -10.283336|  -10.119444|   -0.060586|   -0.000041|
|         342|  -10.298624|  -10.133409|   -0.060586|   -0.000041|
|         343|  -10.313944|  -10.147355|   -0.060586|   -0.000041|
|         344|  -10.329298|  -10.161281|   -0.060587|   -0.000041|
|         345|  -10.344683|  -10.175184|   -0.060587|   -0.000041|
|         346|  -10.360100|  -10.189066|   -0.060587|   -0.000041|
|         347|  -10.375548|  -10.202923|   -0.060587|   -0.000041|
|         348|  -10.391026|  -10.216755|   -0.060587|   -0.000041|
|         349|  -10.406533|  -10.230560|   -0.060587|   -0.000041|
|         350|  -10.422070|  -10.244338|   -0.060587|   -0.000041|
|         351|  -10.437635|  -10.258086|   -0.060587|   -0.000041|
|         352|  -10.453228|  -10.271804|   -0.060588|   -0.000041|
|         353|  -10.468847|  -10.285491|   -0.060588|   -0.000041|
|         354|  -10.484493|  -10.299145|   -0.060588|   -0.000041|
|         355|  -10.500164|  -10.312765|   -0.060588|   -0.000041|
|         356|  -10.515859|  -10.326350|   -0.060588|   -0.000041|
|         357|  -10.531579|  -10.339899|   -0.060588|   -0.000041|
|         358|  -10.547321|  -10.353410|   -0.060588|   -0.000041|
|         359|  -10.563086|  -10.366883|   -0.060588|   -0.000041|
|         360|  -10.578872|  -10.380317|   -0.060588|   -0.000041|
|         361|  -10.594678|  -10.393710|   -0.060589|   -0.000041|
|         362|  -10.610503|  -10.407061|   -0.060589|   -0.000041|
|         363|  -10.626347|  -10.420369|   -0.060589|   -0.000041|
|         364|  -10.642209|  -10.433634|   -0.060589|   -0.000041|
|         365|  -10.658087|  -10.446854|   -0.060589|   -0.000041|
|         366|  -10.673980|  -10.460028|   -0.060589|   -0.000041|
|         367|  -10.689888|  -10.473156|   -0.060589|   -0.000041|
|         368|  -10.705809|  -10.486236|   -0.060589|   -0.000041|
|         369|  -10.721742|  -10.499269|   -0.060589|   -0.000041|
|         370|  -10.737686|  -10.512252|   -0.060589|   -0.000041|
|         371|  -10.753640|  -10.525185|   -0.060589|   -0.000041|
|         372|  -10.769602|  -10.538069|   -0.060589|   -0.000041|
|         373|  -10.785572|  -10.550900|   -0.060590|   -0.000041|
|         374|  -10.801547|  -10.563681|   -0.060590|   -0.000041|
|         375|  -10.817527|  -10.576409|   -0.060590|   -0.000041|
|         376|  -10.833511|  -10.589085|   -0.060590|   -0.000041|
|         377|  -10.849496|  -10.601707|   -0.060590|   -0.000041|
|         378|  -10.865481|  -10.614275|   -0.060590|   -0.000041|
|         379|  -10.881466|  -10.626791|   -0.060590|   -0.000041|
|         380|  -10.897449|  -10.639251|   -0.060590|   -0.000041|
|         381|  -10.913427|  -10.651657|   -0.060590|   -0.000041|
|         382|  -10.929400|  -10.664008|   -0.060590|   -0.000041|
|         383|  -10.945365|  -10.676305|   -0.060590|   -0.000041|
|         384|  -10.961322|  -10.688546|   -0.060590|   -0.000041|
|         385|  -10.977268|  -10.700732|   -0.060590|   -0.000041|
|         386|  -10.993203|  -10.712864|   -0.060590|   -0.000041|
|         387|  -11.009123|  -10.724939|   -0.060590|   -0.000041|
|         388|  -11.025028|  -10.736960|   -0.060590|   -0.000041|
|         389|  -11.040916|  -10.748927|   -0.060590|   -0.000041|
|         390|  -11.056784|  -10.760839|   -0.060591|   -0.000041|
|         391|  -11.072631|  -10.772696|   -0.060591|   -0.000041|
|         392|  -11.088456|  -10.784499|   -0.060591|   -0.000041|
|         393|  -11.104256|  -10.796249|   -0.060591|   -0.000041|
|         394|  -11.120029|  -10.807945|   -0.060591|   -0.000041|
|         395|  -11.135774|  -10.819588|   -0.060591|   -0.000041|
|         396|  -11.151488|  -10.831178|   -0.060591|   -0.000041|
|         397|  -11.167170|  -10.842717|   -0.060591|   -0.000041|
|         398|  -11.182818|  -10.854204|   -0.060591|   -0.000041|
|         399|  -11.198429|  -10.865639|   -0.060591|   -0.000041|
|         400|  -11.214002|  -10.877024|   -0.060591|   -0.000041|
|         401|  -11.229535|  -10.888359|   -0.060591|   -0.000041|
|         402|  -11.245025|  -10.899645|   -0.060591|   -0.000041|
|         403|  -11.260472|  -10.910883|   -0.060591|   -0.000041|
|         404|  -11.275871|  -10.922072|   -0.060591|   -0.000041|
|         405|  -11.291223|  -10.933215|   -0.060591|   -0.000041|
|         406|  -11.306525|  -10.944311|   -0.060591|   -0.000041|
|         407|  -11.321775|  -10.955363|   -0.060591|   -0.000041|
|         408|  -11.336971|  -10.966369|   -0.060591|   -0.000041|
|         409|  -11.352110|  -10.977330|   -0.060591|   -0.000041|
|         410|  -11.367192|  -10.988250|   -0.060591|   -0.000041|
|         411|  -11.382213|  -10.999125|   -0.060591|   -0.000041|
|         412|  -11.397174|  -11.009961|   -0.060591|   -0.000041|
|         413|  -11.412072|  -11.020756|   -0.060591|   -0.000041|
|         414|  -11.426904|  -11.031510|   -0.060591|   -0.000041|
|         415|  -11.441671|  -11.042227|   -0.060592|   -0.000041|
|         416|  -11.456368|  -11.052905|   -0.060592|   -0.000041|
|         417|  -11.470996|  -11.063545|   -0.060592|   -0.000041|
|         418|  -11.485553|  -11.074149|   -0.060592|   -0.000041|
|         419|  -11.500036|  -11.084717|   -0.060592|   -0.000041|
|         420|  -11.514447|  -11.095253|   -0.060592|   -0.000041|
|         421|  -11.528781|  -11.105755|   -0.060592|   -0.000041|
|         422|  -11.543040|  -11.116223|   -0.060592|   -0.000041|
|         423|  -11.557219|  -11.126658|   -0.060592|   -0.000041|
|         424|  -11.571320|  -11.137063|   -0.060592|   -0.000041|
|         425|  -11.585342|  -11.147439|   -0.060592|   -0.000041|
|         426|  -11.599283|  -11.157785|   -0.060592|   -0.000041|
|         427|  -11.613142|  -11.168101|   -0.060592|   -0.000041|
|         428|  -11.626920|  -11.178392|   -0.060592|   -0.000041|
|         429|  -11.640615|  -11.188655|   -0.060592|   -0.000041|
|         430|  -11.654227|  -11.198892|   -0.060592|   -0.000041|
|         431|  -11.667753|  -11.209102|   -0.060592|   -0.000041|
|         432|  -11.681199|  -11.219293|   -0.060592|   -0.000041|
|         433|  -11.694558|  -11.229455|   -0.060592|   -0.000041|
|         434|  -11.707833|  -11.239595|   -0.060592|   -0.000041|
|         435|  -11.721024|  -11.249715|   -0.060592|   -0.000041|
|         436|  -11.734131|  -11.259812|   -0.060592|   -0.000041|
|         437|  -11.747155|  -11.269891|   -0.060592|   -0.000041|
|         438|  -11.760093|  -11.279948|   -0.060592|   -0.000041|
|         439|  -11.772950|  -11.289987|   -0.060592|   -0.000041|
|         440|  -11.785720|  -11.300004|   -0.060592|   -0.000041|
|         441|  -11.798412|  -11.310008|   -0.060592|   -0.000041|
|         442|  -11.811020|  -11.319992|   -0.060592|   -0.000041|
|         443|  -11.823548|  -11.329962|   -0.060592|   -0.000041|
|         444|  -11.835994|  -11.339913|   -0.060592|   -0.000041|
|         445|  -11.848361|  -11.349851|   -0.060592|   -0.000041|
|         446|  -11.860650|  -11.359773|   -0.060592|   -0.000041|
|         447|  -11.872862|  -11.369683|   -0.060592|   -0.000041|
|         448|  -11.884997|  -11.379576|   -0.060592|   -0.000041|
|         449|  -11.897059|  -11.389463|   -0.060592|   -0.000041|
|         450|  -11.909042|  -11.399332|   -0.060592|   -0.000041|
|         451|  -11.920955|  -11.409190|   -0.060592|   -0.000041|
|         452|  -11.932797|  -11.419039|   -0.060592|   -0.000041|
|         453|  -11.944564|  -11.428872|   -0.060592|   -0.000041|
|         454|  -11.956264|  -11.438698|   -0.060592|   -0.000041|
|         455|  -11.967899|  -11.448517|   -0.060592|   -0.000041|
|         456|  -11.979465|  -11.458322|   -0.060592|   -0.000041|
|         457|  -11.990966|  -11.468120|   -0.060592|   -0.000041|
|         458|  -12.002409|  -11.477915|   -0.060592|   -0.000041|
|         459|  -12.013786|  -11.487694|   -0.060592|   -0.000041|
|         460|  -12.025104|  -11.497469|   -0.060592|   -0.000041|
|         461|  -12.036359|  -11.507234|   -0.060592|   -0.000041|
|         462|  -12.047563|  -11.517000|   -0.060592|   -0.000041|
|         463|  -12.058707|  -11.526751|   -0.060592|   -0.000041|
|         464|  -12.069802|  -11.536502|   -0.060592|   -0.000041|
|         465|  -12.080837|  -11.546241|   -0.060592|   -0.000041|
|         466|  -12.091826|  -11.555979|   -0.060592|   -0.000041|
|         467|  -12.102764|  -11.565713|   -0.060592|   -0.000041|
|         468|  -12.113651|  -11.575436|   -0.060592|   -0.000041|
|         469|  -12.124497|  -11.585163|   -0.060592|   -0.000041|
|         470|  -12.135299|  -11.594886|   -0.060592|   -0.000041|
|         471|  -12.146048|  -11.604593|   -0.060592|   -0.000041|
|         472|  -12.156769|  -11.614314|   -0.060592|   -0.000041|
|         473|  -12.167441|  -11.624026|   -0.060593|   -0.000041|
|         474|  -12.178072|  -11.633729|   -0.060593|   -0.000041|
|         475|  -12.188663|  -11.643427|   -0.060593|   -0.000041|
|         476|  -12.199227|  -11.653133|   -0.060593|   -0.000041|
|         477|  -12.209751|  -11.662834|   -0.060593|   -0.000041|
|         478|  -12.220238|  -11.672530|   -0.060593|   -0.000041|
|         479|  -12.230695|  -11.682224|   -0.060593|   -0.000041|
|         480|  -12.241129|  -11.691925|   -0.060593|   -0.000041|
|         481|  -12.251518|  -11.701614|   -0.060593|   -0.000041|
|         482|  -12.261891|  -11.711307|   -0.060593|   -0.000041|
|         483|  -12.272223|  -11.720995|   -0.060593|   -0.000041|
|         484|  -12.282536|  -11.730685|   -0.060593|   -0.000041|
|         485|  -12.292825|  -11.740379|   -0.060593|   -0.000041|
|         486|  -12.303083|  -11.750061|   -0.060593|   -0.000041|
|         487|  -12.313324|  -11.759754|   -0.060593|   -0.000041|
|         488|  -12.323542|  -11.769441|   -0.060593|   -0.000041|
|         489|  -12.333740|  -11.779137|   -0.060593|   -0.000041|
|         490|  -12.343918|  -11.788821|   -0.060593|   -0.000041|
|         491|  -12.354069|  -11.798514|   -0.060593|   -0.000041|
|         492|  -12.364207|  -11.808204|   -0.060593|   -0.000041|
|         493|  -12.374330|  -11.817897|   -0.060593|   -0.000041|
|         494|  -12.384431|  -11.827590|   -0.060593|   -0.000041|
|         495|  -12.394521|  -11.837286|   -0.060593|   -0.000041|
|         496|  -12.404588|  -11.846976|   -0.060593|   -0.000041|
|         497|  -12.414649|  -11.856676|   -0.060593|   -0.000041|
|         498|  -12.424686|  -11.866364|   -0.060593|   -0.000041|
|         499|  -12.434715|  -11.876069|   -0.060593|   -0.000041|
|         500|  -12.444729|  -11.885762|   -0.060593|   -0.000041|
+-----------------------------------------------------------------------+
|        File Writing Summary       |              Filename             |
+-----------------------------------------------------------------------+
|SU2 restart                        |restart_flow.dat                   |
|Paraview                           |flow.vtu                           |
|Paraview surface                   |surface_flow.vtu                   |
|CSV file                           |surface_flow.csv                   |
+-----------------------------------------------------------------------+
+----------------------------------------------------------------+
|  Inner_Iter|    rms[Rho]|   rms[RhoE]|          CL|          CD|
+----------------------------------------------------------------+
|         501|  -12.454736|  -11.895461|   -0.060593|   -0.000041|
|         502|  -12.464728|  -11.905160|   -0.060593|   -0.000041|
|         503|  -12.474727|  -11.914881|   -0.060593|   -0.000041|
|         504|  -12.484698|  -11.924586|   -0.060593|   -0.000041|
|         505|  -12.494649|  -11.934276|   -0.060593|   -0.000041|
|         506|  -12.504607|  -11.943992|   -0.060593|   -0.000041|
|         507|  -12.514572|  -11.953719|   -0.060593|   -0.000041|
|         508|  -12.524513|  -11.963431|   -0.060593|   -0.000041|
|         509|  -12.534426|  -11.973130|   -0.060593|   -0.000041|
|         510|  -12.544361|  -11.982860|   -0.060593|   -0.000041|
|         511|  -12.554284|  -11.992577|   -0.060593|   -0.000041|
|         512|  -12.564181|  -12.002286|   -0.060593|   -0.000041|
|         513|  -12.574098|  -12.012022|   -0.060593|   -0.000041|
|         514|  -12.584005|  -12.021754|   -0.060593|   -0.000041|
|         515|  -12.593903|  -12.031477|   -0.060593|   -0.000041|
|         516|  -12.603807|  -12.041216|   -0.060593|   -0.000041|
|         517|  -12.613682|  -12.050937|   -0.060593|   -0.000041|
|         518|  -12.623560|  -12.060672|   -0.060593|   -0.000041|
|         519|  -12.633457|  -12.070428|   -0.060593|   -0.000041|
|         520|  -12.643339|  -12.080174|   -0.060593|   -0.000041|
|         521|  -12.653200|  -12.089894|   -0.060593|   -0.000041|
|         522|  -12.663071|  -12.099648|   -0.060593|   -0.000041|
|         523|  -12.672938|  -12.109401|   -0.060593|   -0.000041|
|         524|  -12.682833|  -12.119172|   -0.060593|   -0.000041|
|         525|  -12.692667|  -12.128891|   -0.060593|   -0.000041|
|         526|  -12.702540|  -12.138668|   -0.060593|   -0.000041|
|         527|  -12.712399|  -12.148419|   -0.060593|   -0.000041|
|         528|  -12.722256|  -12.158178|   -0.060593|   -0.000041|
|         529|  -12.732128|  -12.167949|   -0.060593|   -0.000041|
|         530|  -12.741985|  -12.177720|   -0.060593|   -0.000041|
|         531|  -12.751843|  -12.187497|   -0.060593|   -0.000041|
|         532|  -12.761714|  -12.197268|   -0.060593|   -0.000041|
|         533|  -12.771556|  -12.207033|   -0.060593|   -0.000041|
|         534|  -12.781414|  -12.216826|   -0.060593|   -0.000041|
|         535|  -12.791263|  -12.226590|   -0.060593|   -0.000041|
|         536|  -12.801122|  -12.236379|   -0.060593|   -0.000041|
|         537|  -12.810973|  -12.246165|   -0.060593|   -0.000041|
|         538|  -12.820841|  -12.255958|   -0.060593|   -0.000041|
|         539|  -12.830676|  -12.265728|   -0.060593|   -0.000041|
|         540|  -12.840535|  -12.275528|   -0.060593|   -0.000041|
|         541|  -12.850405|  -12.285326|   -0.060593|   -0.000041|
|         542|  -12.860266|  -12.295145|   -0.060593|   -0.000041|
|         543|  -12.870100|  -12.304911|   -0.060593|   -0.000041|
|         544|  -12.879959|  -12.314721|   -0.060593|   -0.000041|
|         545|  -12.889816|  -12.324523|   -0.060593|   -0.000041|
|         546|  -12.899673|  -12.334340|   -0.060593|   -0.000041|
|         547|  -12.909528|  -12.344153|   -0.060593|   -0.000041|
|         548|  -12.919418|  -12.353991|   -0.060593|   -0.000041|
|         549|  -12.929254|  -12.363784|   -0.060593|   -0.000041|
|         550|  -12.939136|  -12.373616|   -0.060593|   -0.000041|
|         551|  -12.949014|  -12.383437|   -0.060593|   -0.000041|
|         552|  -12.958831|  -12.393227|   -0.060593|   -0.000041|
|         553|  -12.968693|  -12.403053|   -0.060593|   -0.000041|
|         554|  -12.978559|  -12.412890|   -0.060593|   -0.000041|
|         555|  -12.988374|  -12.422663|   -0.060593|   -0.000041|
|         556|  -12.998322|  -12.432568|   -0.060593|   -0.000041|
|         557|  -13.008150|  -12.442359|   -0.060593|   -0.000041|

----------------------------- Solver Exit -------------------------------
All convergence criteria satisfied.
+-----------------------------------------------------------------------+
|      Convergence Field     |     Value    |   Criterion  |  Converged |
+-----------------------------------------------------------------------+
|                    rms[Rho]|      -13.0082|         < -13|         Yes|
+-----------------------------------------------------------------------+
-------------------------------------------------------------------------
+-----------------------------------------------------------------------+
|        File Writing Summary       |              Filename             |
+-----------------------------------------------------------------------+
|SU2 restart                        |restart_flow.dat                   |
|Paraview                           |flow.vtu                           |
|Paraview surface                   |surface_flow.vtu                   |
|CSV file                           |surface_flow.csv                   |
+-----------------------------------------------------------------------+

------------------------- Solver Postprocessing -------------------------
Deleted CNumerics container.
Deleted CIntegration container.
Deleted CSolver container.
Deleted CIteration container.
Deleted CInterpolator container.
Deleted CInterface container.
Deleted CGeometry container.
Deleted CFreeFormDefBox class.
Deleted CSurfaceMovement class.
Deleted CVolumetricMovement class.
Deleted CConfig container.
Deleted nInst container.
Deleted COutput class.
-------------------------------------------------------------------------

------------------------- Exit Success (SU2_CFD) ------------------------

