
-------------------------------------------------------------------------
|    ___ _   _ ___                                                      |
|   / __| | | |_  )   Release 7.0.5 "Blackbird"                         |
|   \__ \ |_| |/ /                                                      |
|   |___/\___//___|   Suite (Computational Fluid Dynamics Code)         |
|                                                                       |
-------------------------------------------------------------------------
| SU2 Project Website: https://su2code.github.io                        |
|                                                                       |
| The SU2 Project is maintained by the SU2 Foundation                   |
| (http://su2foundation.org)                                            |
-------------------------------------------------------------------------
| Copyright 2012-2020, SU2 Contributors                                 |
|                                                                       |
| SU2 is free software; you can redistribute it and/or                  |
| modify it under the terms of the GNU Lesser General Public            |
| License as published by the Free Software Foundation; either          |
| version 2.1 of the License, or (at your option) any later version.    |
|                                                                       |
| SU2 is distributed in the hope that it will be useful,                |
| but WITHOUT ANY WARRANTY; without even the implied warranty of        |
| MERCHANTABILITY or FITNESS FOR A PARTICULAR PURPOSE. See the GNU      |
| Lesser General Public License for more details.                       |
|                                                                       |
| You should have received a copy of the GNU Lesser General Public      |
| License along with SU2. If not, see <http://www.gnu.org/licenses/>.   |
-------------------------------------------------------------------------

Parsing config file for zone 0

----------------- Physical Case Definition ( Zone 0 ) -------------------
Compressible Euler equations.
Mach number: 0.15.
Angle of attack (AoA): 0.5 deg, and angle of sideslip (AoS): 0 deg.
No restart solution, use the values at infinity (freestream).
Non-Dimensional simulation (P=1.0, Rho=1.0, T=1.0 at the farfield).
The reference area is 1 m^2.
The semi-span will be computed using the max y(3D) value.
The reference length is 1 m.
Reference origin for moment evaluation is (0.25, 0, 0).
Surface(s) where the force coefficients are evaluated: airfoil.

Surface(s) plotted in the output file: airfoil.
Surface(s) affected by the design variables: airfoil.
Input mesh file name: mesh_NACA0012_inv_deform.su2

--------------- Space Numerical Integration ( Zone 0 ) ------------------
Jameson-Schmidt-Turkel scheme (2nd order in space) for the flow inviscid terms.
JST viscous coefficients (2nd & 4th): 0.5, 0.02.
The method includes a grid stretching correction (p = 0.3).
Gradient for upwind reconstruction: Green-Gauss.
Gradient for viscous and source terms: Green-Gauss.

--------------- Time Numerical Integration  ( Zone 0 ) ------------------
Local time stepping (steady state simulation).
Euler implicit method for the flow equations.
FGMRES is used for solving the linear system.
Using a LU-SGS preconditioning.
Convergence criteria of the linear solver: 0.0001.
Max number of linear iterations: 2.
V Multigrid Cycle, with 2 multigrid levels.
Damping factor for the residual restriction: 1.
Damping factor for the correction prolongation: 1.
No CFL adaptation.
+-------------------------------------------+
|  MG Level| Presmooth|PostSmooth|CorrectSmo|
+-------------------------------------------+
|         0|         1|         0|         0|
|         1|         2|         0|         0|
|         2|         3|         0|         0|
+-------------------------------------------+
Courant-Friedrichs-Lewy number:       10

------------------ Convergence Criteria  ( Zone 0 ) ---------------------
Maximum number of solver subiterations: 1000.
Begin convergence monitoring at iteration 10.
Residual minimum value: 1e-13.
Cauchy series min. value: 1e-06.
Number of Cauchy elements: 100.
Begin windowed time average at iteration 0.

-------------------- Output Information ( Zone 0 ) ----------------------
Writing solution files every 250 iterations.
Writing the convergence history file every 1 inner iterations.
Writing the screen convergence history every 1 inner iterations.
The tabular file format is CSV (.csv).
Convergence history file name: history_direct.
Forces breakdown file name: forces_breakdown.dat.
Surface file name: surface_flow.
Volume file name: flow.
Restart file name: restart_flow.dat.

------------- Config File Boundary Information ( Zone 0 ) ---------------
+-----------------------------------------------------------------------+
|                        Marker Type|                        Marker Name|
+-----------------------------------------------------------------------+
|                         Euler wall|                            airfoil|
+-----------------------------------------------------------------------+
|                          Far-field|                           farfield|
+-----------------------------------------------------------------------+

-------------------- Output Preprocessing ( Zone 0 ) --------------------
Screen output fields: INNER_ITER, RMS_DENSITY, RMS_ENERGY, LIFT, DRAG
History output group(s): ITER, RMS_RES, AERO_COEFF
Convergence field(s): RMS_DENSITY
Warning: No (valid) fields chosen for time convergence monitoring. Time convergence monitoring inactive.
Volume output fields: COORDINATES, SOLUTION, PRIMITIVE

------------------- Geometry Preprocessing ( Zone 0 ) -------------------
Two dimensional problem.
5233 grid points.
10216 volume elements.
2 surface markers.
200 boundary elements in index 0 (Marker = airfoil).
50 boundary elements in index 1 (Marker = farfield).
10216 triangles.
Setting point connectivity.
Renumbering points (Reverse Cuthill McKee Ordering).
Recomputing point connectivity.
Setting element connectivity.
Checking the numerical grid orientation.
Identifying edges and vertices.
Computing centers of gravity.
Setting the control volume structure.
Area of the computational grid: 1253.25.
Searching for the closest normal neighbors to the surfaces.
Storing a mapping from global to local point index.
Compute the surface curvature.
Max K: 7835.1. Mean K: 34.8203. Standard deviation K: 494.448.
Checking for periodicity.
Computing mesh quality statistics for the dual control volumes.
+--------------------------------------------------------------+
|           Mesh Quality Metric|        Minimum|        Maximum|
+--------------------------------------------------------------+
|    Orthogonality Angle (deg.)|        62.6722|        89.7085|
|     CV Face Area Aspect Ratio|              1|        7.18345|
|           CV Sub-Volume Ratio|        1.00285|        6.47829|
+--------------------------------------------------------------+
Setting the multigrid structure.
+-------------------------------------------+
|  MG Level|       CVs|Aggl. Rate|       CFL|
+-------------------------------------------+
|         0|      5233|    1/1.00|        10|
|         1|      1533|    1/3.41|   8.11871|
|         2|       443|    1/3.46|    6.5465|
+-------------------------------------------+
Finding max control volume width.
Wetted area = 2.03922 m.
Area projection in the x-plane = 0.119982 m, y-plane = 0.999845 m.
Max. coordinate in the x-direction = 1 m, y-direction = 0.0600008 m.
Min. coordinate in the x-direction = 0 m, y-direction = -0.060013 m.
Checking if Euler & Symmetry markers are straight/plane:
Boundary marker airfoil is NOT a single straight.
Computing wall distances.

-------------------- Solver Preprocessing ( Zone 0 ) --------------------
Inviscid flow: Computing density based on free-stream
temperature and pressure using the ideal gas law.
Force coefficients computed using free-stream values.

-- Models:
+------------------------------------------------------------------------------+
|          Viscosity Model|        Conductivity Model|              Fluid Model|
+------------------------------------------------------------------------------+
|                        -|                         -|             STANDARD_AIR|
+------------------------------------------------------------------------------+
-- Fluid properties:
+------------------------------------------------------------------------------+
|                  Name|    Dim. value|    Ref. value|      Unit|Non-dim. value|
+------------------------------------------------------------------------------+
|          Gas Constant|       287.058|       287.058|  N.m/kg.K|             1|
|      Spec. Heat Ratio|             -|             -|         -|           1.4|
+------------------------------------------------------------------------------+
-- Initial and free-stream conditions:
+------------------------------------------------------------------------------+
|                  Name|    Dim. value|    Ref. value|      Unit|Non-dim. value|
+------------------------------------------------------------------------------+
|       Static Pressure|        101325|        101325|        Pa|             1|
|               Density|       1.22498|       1.22498|    kg/m^3|             1|
|           Temperature|        288.15|        288.15|         K|             1|
|          Total Energy|        208092|       82715.8|   m^2/s^2|       2.51575|
|            Velocity-X|       51.0426|       287.603|       m/s|      0.177476|
|            Velocity-Y|      0.445442|       287.603|       m/s|    0.00154881|
|    Velocity Magnitude|       51.0446|       287.603|       m/s|      0.177482|
+------------------------------------------------------------------------------+
|           Mach Number|             -|             -|         -|          0.15|
+------------------------------------------------------------------------------+
Initialize Jacobian structure (Euler). MG level: 0.
Initialize Jacobian structure (Euler). MG level: 1.
Initialize Jacobian structure (Euler). MG level: 2.

------------------- Numerics Preprocessing ( Zone 0 ) -------------------

----------------- Integration Preprocessing ( Zone 0 ) ------------------

------------------- Iteration Preprocessing ( Zone 0 ) ------------------
Euler/Navier-Stokes/RANS fluid iteration.

------------------------------ Begin Solver -----------------------------

Simulation Run using the Single-zone Driver
+----------------------------------------------------------------+
|  Inner_Iter|    rms[Rho]|   rms[RhoE]|          CL|          CD|
+----------------------------------------------------------------+
|           0|   -4.317678|   -3.771660|    0.248624|    0.955091|
|           1|   -4.440763|   -3.887750|    0.180230|   -0.061158|
|           2|   -4.551514|   -4.001840|   -0.026054|   -0.171665|
|           3|   -4.541276|   -3.985272|   -0.115045|    0.002600|
|           4|   -4.469593|   -3.920818|    0.004253|    0.118321|
|           5|   -4.574708|   -4.025270|    0.136987|    0.058097|
|           6|   -4.559522|   -4.008715|    0.089670|   -0.045862|
|           7|   -4.675246|   -4.127699|   -0.034010|   -0.035398|
|           8|   -4.744369|   -4.193210|   -0.027401|    0.041038|
|           9|   -4.816212|   -4.268802|    0.073950|    0.040162|
|          10|   -5.029813|   -4.477567|    0.097033|   -0.019963|
|          11|   -4.986151|   -4.437138|    0.030314|   -0.026034|
|          12|   -5.221261|   -4.673040|   -0.003987|    0.016236|
|          13|   -5.197430|   -4.645965|    0.034479|    0.023930|
|          14|   -5.307476|   -4.760731|    0.073023|   -0.007753|
|          15|   -5.455319|   -4.902316|    0.059352|   -0.018060|
|          16|   -5.438093|   -4.890209|    0.027392|    0.004527|
|          17|   -5.672635|   -5.122581|    0.027324|    0.015673|
|          18|   -5.632201|   -5.081993|    0.051585|    0.000376|
|          19|   -5.775119|   -5.229788|    0.060959|   -0.010559|
|          20|   -5.793202|   -5.244723|    0.047746|   -0.001483|
|          21|   -5.833291|   -5.288304|    0.037597|    0.007687|
|          22|   -5.931645|   -5.381582|    0.044682|    0.002582|
|          23|   -5.842382|   -5.297078|    0.054505|   -0.004270|
|          24|   -6.013197|   -5.465584|    0.053207|   -0.001736|
|          25|   -5.903652|   -5.356612|    0.046788|    0.002984|
|          26|   -6.028316|   -5.483483|    0.046129|    0.001779|
|          27|   -6.025068|   -5.477455|    0.050594|   -0.001539|
|          28|   -6.040963|   -5.496477|    0.052790|   -0.001113|
|          29|   -6.157311|   -5.615254|    0.050854|    0.001166|
|          30|   -6.114747|   -5.573678|    0.048871|    0.001071|
|          31|   -6.227084|   -5.686883|    0.049616|   -0.000647|
|          32|   -6.232631|   -5.688439|    0.051427|   -0.000943|
|          33|   -6.265066|   -5.726077|    0.051974|    0.000245|
|          34|   -6.322796|   -5.789289|    0.051239|    0.000782|
|          35|   -6.331056|   -5.796421|    0.050612|    0.000034|
|          36|   -6.367850|   -5.831566|    0.050987|   -0.000649|
|          37|   -6.383904|   -5.846870|    0.051873|   -0.000397|
|          38|   -6.401802|   -5.866633|    0.052399|    0.000243|
|          39|   -6.426970|   -5.892769|    0.052314|    0.000350|
|          40|   -6.442377|   -5.907845|    0.052046|   -0.000080|
|          41|   -6.459899|   -5.925152|    0.052145|   -0.000348|
|          42|   -6.472496|   -5.937546|    0.052629|   -0.000154|
|          43|   -6.488267|   -5.953295|    0.053079|    0.000111|
|          44|   -6.511872|   -5.976809|    0.053198|    0.000087|
|          45|   -6.526354|   -5.990892|    0.053100|   -0.000110|
|          46|   -6.545730|   -6.010276|    0.053099|   -0.000181|
|          47|   -6.568509|   -6.032890|    0.053337|   -0.000078|
|          48|   -6.585279|   -6.049342|    0.053648|   -0.000000|
|          49|   -6.605471|   -6.070162|    0.053813|   -0.000053|
|          50|   -6.622424|   -6.087660|    0.053824|   -0.000139|
|          51|   -6.638153|   -6.103314|    0.053835|   -0.000144|
|          52|   -6.659906|   -6.124899|    0.053967|   -0.000090|
|          53|   -6.681551|   -6.146249|    0.054190|   -0.000065|
|          54|   -6.701403|   -6.166059|    0.054383|   -0.000102|
|          55|   -6.721181|   -6.185901|    0.054486|   -0.000145|
|          56|   -6.741150|   -6.205610|    0.054555|   -0.000141|
|          57|   -6.763367|   -6.227335|    0.054673|   -0.000107|
|          58|   -6.787140|   -6.250512|    0.054854|   -0.000092|
|          59|   -6.810346|   -6.273081|    0.055040|   -0.000110|
|          60|   -6.833003|   -6.295092|    0.055178|   -0.000132|
|          61|   -6.855688|   -6.317118|    0.055281|   -0.000131|
|          62|   -6.878514|   -6.339282|    0.055392|   -0.000114|
|          63|   -6.901448|   -6.361514|    0.055534|   -0.000106|
|          64|   -6.924558|   -6.383897|    0.055685|   -0.000114|
|          65|   -6.948192|   -6.406951|    0.055814|   -0.000125|
|          66|   -6.971873|   -6.430375|    0.055919|   -0.000126|
|          67|   -6.994792|   -6.453371|    0.056020|   -0.000121|
|          68|   -7.017231|   -6.476130|    0.056135|   -0.000120|
|          69|   -7.039171|   -6.498624|    0.056258|   -0.000126|
|          70|   -7.060176|   -6.520574|    0.056375|   -0.000131|
|          71|   -7.080280|   -6.542099|    0.056480|   -0.000132|
|          72|   -7.099668|   -6.563174|    0.056579|   -0.000131|
|          73|   -7.118875|   -6.584001|    0.056685|   -0.000133|
|          74|   -7.138507|   -6.605054|    0.056798|   -0.000137|
|          75|   -7.158792|   -6.626707|    0.056910|   -0.000140|
|          76|   -7.179998|   -6.649433|    0.057017|   -0.000140|
|          77|   -7.202232|   -6.673392|    0.057119|   -0.000140|
|          78|   -7.225051|   -6.698074|    0.057223|   -0.000141|
|          79|   -7.247875|   -6.722884|    0.057329|   -0.000144|
|          80|   -7.270384|   -6.747594|    0.057434|   -0.000145|
|          81|   -7.292453|   -6.772181|    0.057534|   -0.000145|
|          82|   -7.313988|   -6.796564|    0.057629|   -0.000145|
|          83|   -7.334939|   -6.820646|    0.057721|   -0.000145|
|          84|   -7.355431|   -6.844528|    0.057812|   -0.000147|
|          85|   -7.375742|   -6.868465|    0.057900|   -0.000147|
|          86|   -7.396195|   -6.892737|    0.057985|   -0.000148|
|          87|   -7.417041|   -6.917561|    0.058065|   -0.000148|
|          88|   -7.438296|   -6.942936|    0.058142|   -0.000149|
|          89|   -7.459734|   -6.968570|    0.058217|   -0.000150|
|          90|   -7.481033|   -6.993979|    0.058290|   -0.000151|
|          91|   -7.501906|   -7.018669|    0.058360|   -0.000152|
|          92|   -7.522158|   -7.042312|    0.058427|   -0.000153|
|          93|   -7.541695|   -7.064808|    0.058491|   -0.000155|
|          94|   -7.560554|   -7.086279|    0.058553|   -0.000156|
|          95|   -7.578919|   -7.107036|    0.058614|   -0.000157|
|          96|   -7.597002|   -7.127430|    0.058673|   -0.000158|
|          97|   -7.614904|   -7.147695|    0.058729|   -0.000160|
|          98|   -7.632627|   -7.167924|    0.058784|   -0.000161|
|          99|   -7.650147|   -7.188113|    0.058837|   -0.000162|
|         100|   -7.667446|   -7.208195|    0.058888|   -0.000163|
|         101|   -7.684488|   -7.228047|    0.058937|   -0.000164|
|         102|   -7.701241|   -7.247568|    0.058983|   -0.000165|
|         103|   -7.717749|   -7.266772|    0.059028|   -0.000166|
|         104|   -7.734142|   -7.285821|    0.059070|   -0.000167|
|         105|   -7.750587|   -7.304956|    0.059111|   -0.000168|
|         106|   -7.767221|   -7.324409|    0.059149|   -0.000169|
|         107|   -7.784094|   -7.344329|    0.059186|   -0.000169|
|         108|   -7.801153|   -7.364705|    0.059222|   -0.000170|
|         109|   -7.818237|   -7.385348|    0.059256|   -0.000171|
|         110|   -7.835121|   -7.405924|    0.059288|   -0.000171|
|         111|   -7.851575|   -7.426051|    0.059319|   -0.000172|
|         112|   -7.867422|   -7.445404|    0.059349|   -0.000173|
|         113|   -7.882587|   -7.463807|    0.059378|   -0.000173|
|         114|   -7.897119|   -7.481290|    0.059406|   -0.000174|
|         115|   -7.911157|   -7.498065|    0.059434|   -0.000174|
|         116|   -7.924878|   -7.514443|    0.059460|   -0.000175|
|         117|   -7.938434|   -7.530717|    0.059486|   -0.000175|
|         118|   -7.951909|   -7.547085|    0.059511|   -0.000176|
|         119|   -7.965310|   -7.563596|    0.059536|   -0.000176|
|         120|   -7.978569|   -7.580156|    0.059560|   -0.000177|
|         121|   -7.991578|   -7.596574|    0.059583|   -0.000177|
|         122|   -8.004237|   -7.612648|    0.059606|   -0.000178|
|         123|   -8.016487|   -7.628237|    0.059628|   -0.000178|
|         124|   -8.028331|   -7.643311|    0.059649|   -0.000179|
|         125|   -8.039827|   -7.657953|    0.059670|   -0.000179|
|         126|   -8.051068|   -7.672326|    0.059690|   -0.000180|
|         127|   -8.062153|   -7.686619|    0.059709|   -0.000180|
|         128|   -8.073161|   -7.700992|    0.059728|   -0.000181|
|         129|   -8.084128|   -7.715524|    0.059746|   -0.000181|
|         130|   -8.095046|   -7.730190|    0.059763|   -0.000182|
|         131|   -8.105865|   -7.744872|    0.059779|   -0.000182|
|         132|   -8.116514|   -7.759385|    0.059795|   -0.000182|
|         133|   -8.126929|   -7.773540|    0.059811|   -0.000183|
|         134|   -8.137070|   -7.787187|    0.059826|   -0.000183|
|         135|   -8.146933|   -7.800261|    0.059840|   -0.000183|
|         136|   -8.156547|   -7.812778|    0.059854|   -0.000183|
|         137|   -8.165963|   -7.824827|    0.059868|   -0.000184|
|         138|   -8.175239|   -7.836525|    0.059881|   -0.000184|
|         139|   -8.184426|   -7.847985|    0.059894|   -0.000184|
|         140|   -8.193551|   -7.859285|    0.059907|   -0.000184|
|         141|   -8.202624|   -7.870452|    0.059919|   -0.000185|
|         142|   -8.211632|   -7.881472|    0.059931|   -0.000185|
|         143|   -8.220554|   -7.892303|    0.059943|   -0.000185|
|         144|   -8.229364|   -7.902892|    0.059954|   -0.000185|
|         145|   -8.238046|   -7.913202|    0.059965|   -0.000185|
|         146|   -8.246595|   -7.923216|    0.059976|   -0.000186|
|         147|   -8.255016|   -7.932946|    0.059987|   -0.000186|
|         148|   -8.263327|   -7.942421|    0.059997|   -0.000186|
|         149|   -8.271547|   -7.951679|    0.060007|   -0.000186|
|         150|   -8.279695|   -7.960754|    0.060017|   -0.000186|
|         151|   -8.287783|   -7.969669|    0.060026|   -0.000186|
|         152|   -8.295818|   -7.978428|    0.060035|   -0.000186|
|         153|   -8.303797|   -7.987026|    0.060044|   -0.000187|
|         154|   -8.311715|   -7.995449|    0.060053|   -0.000187|
|         155|   -8.319564|   -8.003687|    0.060062|   -0.000187|
|         156|   -8.327336|   -8.011738|    0.060070|   -0.000187|
|         157|   -8.335028|   -8.019609|    0.060078|   -0.000187|
|         158|   -8.342639|   -8.027321|    0.060087|   -0.000187|
|         159|   -8.350173|   -8.034899|    0.060095|   -0.000187|
|         160|   -8.357634|   -8.042370|    0.060102|   -0.000187|
|         161|   -8.365026|   -8.049755|    0.060110|   -0.000187|
|         162|   -8.372350|   -8.057067|    0.060118|   -0.000187|
|         163|   -8.379608|   -8.064311|    0.060126|   -0.000187|
|         164|   -8.386797|   -8.071485|    0.060133|   -0.000187|
|         165|   -8.393914|   -8.078582|    0.060140|   -0.000187|
|         166|   -8.400956|   -8.085594|    0.060148|   -0.000187|
|         167|   -8.407922|   -8.092519|    0.060155|   -0.000188|
|         168|   -8.414810|   -8.099359|    0.060162|   -0.000188|
|         169|   -8.421624|   -8.106120|    0.060169|   -0.000188|
|         170|   -8.428365|   -8.112813|    0.060176|   -0.000188|
|         171|   -8.435039|   -8.119452|    0.060183|   -0.000188|
|         172|   -8.441650|   -8.126047|    0.060190|   -0.000188|
|         173|   -8.448201|   -8.132607|    0.060196|   -0.000188|
|         174|   -8.454695|   -8.139138|    0.060203|   -0.000188|
|         175|   -8.461131|   -8.145642|    0.060209|   -0.000188|
|         176|   -8.467510|   -8.152116|    0.060216|   -0.000188|
|         177|   -8.473829|   -8.158557|    0.060222|   -0.000188|
|         178|   -8.480087|   -8.164963|    0.060228|   -0.000188|
|         179|   -8.486282|   -8.171329|    0.060235|   -0.000188|
|         180|   -8.492412|   -8.177654|    0.060241|   -0.000188|
|         181|   -8.498477|   -8.183939|    0.060247|   -0.000188|
|         182|   -8.504477|   -8.190184|    0.060253|   -0.000187|
|         183|   -8.510411|   -8.196393|    0.060259|   -0.000187|
|         184|   -8.516281|   -8.202567|    0.060265|   -0.000187|
|         185|   -8.522089|   -8.208710|    0.060271|   -0.000187|
|         186|   -8.527835|   -8.214826|    0.060277|   -0.000187|
|         187|   -8.533523|   -8.220918|    0.060283|   -0.000187|
|         188|   -8.539156|   -8.226992|    0.060289|   -0.000187|
|         189|   -8.544736|   -8.233053|    0.060295|   -0.000187|
|         190|   -8.550268|   -8.239108|    0.060301|   -0.000187|
|         191|   -8.555755|   -8.245164|    0.060307|   -0.000187|
|         192|   -8.561203|   -8.251229|    0.060313|   -0.000187|
|         193|   -8.566617|   -8.257310|    0.060319|   -0.000187|
|         194|   -8.572000|   -8.263414|    0.060325|   -0.000187|
|         195|   -8.577356|   -8.269545|    0.060330|   -0.000187|
|         196|   -8.582690|   -8.275708|    0.060336|   -0.000187|
|         197|   -8.588003|   -8.281904|    0.060342|   -0.000187|
|         198|   -8.593298|   -8.288135|    0.060348|   -0.000187|
|         199|   -8.598576|   -8.294398|    0.060353|   -0.000187|
|         200|   -8.603839|   -8.300693|    0.060359|   -0.000187|
|         201|   -8.609088|   -8.307016|    0.060365|   -0.000187|
|         202|   -8.614323|   -8.313364|    0.060370|   -0.000187|
|         203|   -8.619546|   -8.319736|    0.060376|   -0.000187|
|         204|   -8.624757|   -8.326129|    0.060382|   -0.000186|
|         205|   -8.629958|   -8.332541|    0.060387|   -0.000186|
|         206|   -8.635150|   -8.338972|    0.060393|   -0.000186|
|         207|   -8.640336|   -8.345420|    0.060398|   -0.000186|
|         208|   -8.645517|   -8.351887|    0.060404|   -0.000186|
|         209|   -8.650697|   -8.358374|    0.060409|   -0.000186|
|         210|   -8.655877|   -8.364881|    0.060415|   -0.000186|
|         211|   -8.661062|   -8.371410|    0.060421|   -0.000186|
|         212|   -8.666253|   -8.377966|    0.060426|   -0.000186|
|         213|   -8.671454|   -8.384549|    0.060431|   -0.000186|
|         214|   -8.676668|   -8.391164|    0.060437|   -0.000186|
|         215|   -8.681899|   -8.397813|    0.060442|   -0.000186|
|         216|   -8.687149|   -8.404499|    0.060448|   -0.000186|
|         217|   -8.692422|   -8.411225|    0.060453|   -0.000186|
|         218|   -8.697719|   -8.417992|    0.060459|   -0.000186|
|         219|   -8.703043|   -8.424802|    0.060464|   -0.000186|
|         220|   -8.708397|   -8.431657|    0.060469|   -0.000186|
|         221|   -8.713782|   -8.438555|    0.060475|   -0.000185|
|         222|   -8.719199|   -8.445496|    0.060480|   -0.000185|
|         223|   -8.724650|   -8.452480|    0.060485|   -0.000185|
|         224|   -8.730135|   -8.459504|    0.060490|   -0.000185|
|         225|   -8.735656|   -8.466568|    0.060496|   -0.000185|
|         226|   -8.741214|   -8.473670|    0.060501|   -0.000185|
|         227|   -8.746808|   -8.480808|    0.060506|   -0.000185|
|         228|   -8.752441|   -8.487980|    0.060511|   -0.000185|
|         229|   -8.758113|   -8.495187|    0.060516|   -0.000185|
|         230|   -8.763824|   -8.502426|    0.060521|   -0.000185|
|         231|   -8.769575|   -8.509698|    0.060526|   -0.000185|
|         232|   -8.775368|   -8.517003|    0.060532|   -0.000185|
|         233|   -8.781203|   -8.524341|    0.060537|   -0.000185|
|         234|   -8.787081|   -8.531714|    0.060542|   -0.000185|
|         235|   -8.793004|   -8.539123|    0.060547|   -0.000185|
|         236|   -8.798972|   -8.546567|    0.060552|   -0.000185|
|         237|   -8.804986|   -8.554047|    0.060556|   -0.000185|
|         238|   -8.811047|   -8.561567|    0.060561|   -0.000185|
|         239|   -8.817156|   -8.569127|    0.060566|   -0.000184|
|         240|   -8.823314|   -8.576728|    0.060571|   -0.000184|
|         241|   -8.829521|   -8.584369|    0.060576|   -0.000184|
|         242|   -8.835779|   -8.592053|    0.060581|   -0.000184|
|         243|   -8.842086|   -8.599776|    0.060585|   -0.000184|
|         244|   -8.848443|   -8.607539|    0.060590|   -0.000184|
|         245|   -8.854851|   -8.615341|    0.060595|   -0.000184|
|         246|   -8.861309|   -8.623181|    0.060600|   -0.000184|
|         247|   -8.867819|   -8.631058|    0.060604|   -0.000184|
|         248|   -8.874378|   -8.638970|    0.060609|   -0.000184|
|         249|   -8.880989|   -8.646917|    0.060613|   -0.000184|
|         250|   -8.887651|   -8.654897|    0.060618|   -0.000184|
+-----------------------------------------------------------------------+
|        File Writing Summary       |              Filename             |
+-----------------------------------------------------------------------+
|SU2 restart                        |restart_flow.dat                   |
|Paraview                           |flow.vtu                           |
|Paraview surface                   |surface_flow.vtu                   |
|CSV file                           |surface_flow.csv                   |
+-----------------------------------------------------------------------+
+----------------------------------------------------------------+
|  Inner_Iter|    rms[Rho]|   rms[RhoE]|          CL|          CD|
+----------------------------------------------------------------+
|         251|   -8.894363|   -8.662909|    0.060622|   -0.000184|
|         252|   -8.901126|   -8.670953|    0.060627|   -0.000184|
|         253|   -8.907941|   -8.679029|    0.060631|   -0.000184|
|         254|   -8.914806|   -8.687135|    0.060636|   -0.000184|
|         255|   -8.921723|   -8.695272|    0.060640|   -0.000184|
|         256|   -8.928692|   -8.703441|    0.060645|   -0.000184|
|         257|   -8.935713|   -8.711641|    0.060649|   -0.000184|
|         258|   -8.942786|   -8.719872|    0.060653|   -0.000184|
|         259|   -8.949912|   -8.728136|    0.060657|   -0.000184|
|         260|   -8.957090|   -8.736432|    0.060662|   -0.000184|
|         261|   -8.964320|   -8.744760|    0.060666|   -0.000184|
|         262|   -8.971604|   -8.753121|    0.060670|   -0.000184|
|         263|   -8.978940|   -8.761515|    0.060674|   -0.000183|
|         264|   -8.986330|   -8.769940|    0.060678|   -0.000183|
|         265|   -8.993772|   -8.778397|    0.060682|   -0.000183|
|         266|   -9.001267|   -8.786884|    0.060686|   -0.000183|
|         267|   -9.008814|   -8.795401|    0.060690|   -0.000183|
|         268|   -9.016414|   -8.803947|    0.060694|   -0.000183|
|         269|   -9.024066|   -8.812521|    0.060698|   -0.000183|
|         270|   -9.031770|   -8.821123|    0.060702|   -0.000183|
|         271|   -9.039526|   -8.829750|    0.060705|   -0.000183|
|         272|   -9.047335|   -8.838402|    0.060709|   -0.000183|
|         273|   -9.055195|   -8.847078|    0.060713|   -0.000183|
|         274|   -9.063106|   -8.855779|    0.060717|   -0.000183|
|         275|   -9.071069|   -8.864502|    0.060720|   -0.000183|
|         276|   -9.079083|   -8.873249|    0.060724|   -0.000183|
|         277|   -9.087149|   -8.882018|    0.060728|   -0.000183|
|         278|   -9.095266|   -8.890810|    0.060731|   -0.000183|
|         279|   -9.103434|   -8.899625|    0.060735|   -0.000183|
|         280|   -9.111653|   -8.908461|    0.060738|   -0.000183|
|         281|   -9.119924|   -8.917320|    0.060742|   -0.000183|
|         282|   -9.128245|   -8.926202|    0.060745|   -0.000183|
|         283|   -9.136618|   -8.935105|    0.060748|   -0.000183|
|         284|   -9.145041|   -8.944030|    0.060752|   -0.000183|
|         285|   -9.153514|   -8.952977|    0.060755|   -0.000183|
|         286|   -9.162039|   -8.961944|    0.060758|   -0.000183|
|         287|   -9.170613|   -8.970932|    0.060761|   -0.000183|
|         288|   -9.179237|   -8.979939|    0.060765|   -0.000183|
|         289|   -9.187911|   -8.988966|    0.060768|   -0.000183|
|         290|   -9.196635|   -8.998010|    0.060771|   -0.000183|
|         291|   -9.205408|   -9.007072|    0.060774|   -0.000183|
|         292|   -9.214230|   -9.016150|    0.060777|   -0.000183|
|         293|   -9.223100|   -9.025244|    0.060780|   -0.000183|
|         294|   -9.232020|   -9.034352|    0.060783|   -0.000183|
|         295|   -9.240987|   -9.043475|    0.060786|   -0.000183|
|         296|   -9.250002|   -9.052612|    0.060789|   -0.000183|
|         297|   -9.259065|   -9.061761|    0.060791|   -0.000183|
|         298|   -9.268176|   -9.070924|    0.060794|   -0.000183|
|         299|   -9.277334|   -9.080098|    0.060797|   -0.000183|
|         300|   -9.286539|   -9.089284|    0.060800|   -0.000183|
|         301|   -9.295790|   -9.098482|    0.060802|   -0.000183|
|         302|   -9.305089|   -9.107690|    0.060805|   -0.000183|
|         303|   -9.314433|   -9.116910|    0.060808|   -0.000183|
|         304|   -9.323824|   -9.126140|    0.060810|   -0.000183|
|         305|   -9.333261|   -9.135380|    0.060813|   -0.000183|
|         306|   -9.342743|   -9.144629|    0.060815|   -0.000183|
|         307|   -9.352271|   -9.153888|    0.060818|   -0.000183|
|         308|   -9.361843|   -9.163155|    0.060820|   -0.000183|
|         309|   -9.371461|   -9.172431|    0.060823|   -0.000183|
|         310|   -9.381122|   -9.181714|    0.060825|   -0.000183|
|         311|   -9.390828|   -9.191005|    0.060827|   -0.000183|
|         312|   -9.400578|   -9.200302|    0.060830|   -0.000183|
|         313|   -9.410371|   -9.209604|    0.060832|   -0.000183|
|         314|   -9.420207|   -9.218913|    0.060834|   -0.000183|
|         315|   -9.430086|   -9.228226|    0.060837|   -0.000182|
|         316|   -9.440008|   -9.237543|    0.060839|   -0.000182|
|         317|   -9.449971|   -9.246865|    0.060841|   -0.000182|
|         318|   -9.459977|   -9.256189|    0.060843|   -0.000182|
|         319|   -9.470024|   -9.265517|    0.060845|   -0.000182|
|         320|   -9.480112|   -9.274847|    0.060847|   -0.000182|
|         321|   -9.490240|   -9.284180|    0.060849|   -0.000182|
|         322|   -9.500410|   -9.293514|    0.060851|   -0.000182|
|         323|   -9.510619|   -9.302850|    0.060853|   -0.000182|
|         324|   -9.520868|   -9.312187|    0.060855|   -0.000182|
|         325|   -9.531156|   -9.321524|    0.060857|   -0.000182|
|         326|   -9.541484|   -9.330863|    0.060859|   -0.000182|
|         327|   -9.551850|   -9.340202|    0.060861|   -0.000182|
|         328|   -9.562254|   -9.349540|    0.060862|   -0.000182|
|         329|   -9.572697|   -9.358879|    0.060864|   -0.000182|
|         330|   -9.583177|   -9.368216|    0.060866|   -0.000182|
|         331|   -9.593694|   -9.377553|    0.060868|   -0.000182|
|         332|   -9.604248|   -9.386889|    0.060869|   -0.000182|
|         333|   -9.614838|   -9.396223|    0.060871|   -0.000182|
|         334|   -9.625464|   -9.405555|    0.060873|   -0.000182|
|         335|   -9.636126|   -9.414885|    0.060874|   -0.000182|
|         336|   -9.646822|   -9.424213|    0.060876|   -0.000182|
|         337|   -9.657554|   -9.433538|    0.060877|   -0.000182|
|         338|   -9.668320|   -9.442860|    0.060879|   -0.000182|
|         339|   -9.679119|   -9.452180|    0.060881|   -0.000182|
|         340|   -9.689952|   -9.461497|    0.060882|   -0.000182|
|         341|   -9.700818|   -9.470810|    0.060883|   -0.000182|
|         342|   -9.711717|   -9.480120|    0.060885|   -0.000182|
|         343|   -9.722648|   -9.489427|    0.060886|   -0.000182|
|         344|   -9.733610|   -9.498730|    0.060888|   -0.000182|
|         345|   -9.744604|   -9.508030|    0.060889|   -0.000182|
|         346|   -9.755628|   -9.517326|    0.060890|   -0.000182|
|         347|   -9.766683|   -9.526619|    0.060892|   -0.000182|
|         348|   -9.777767|   -9.535907|    0.060893|   -0.000182|
|         349|   -9.788881|   -9.545192|    0.060894|   -0.000182|
|         350|   -9.800024|   -9.554472|    0.060896|   -0.000182|
|         351|   -9.811195|   -9.563749|    0.060897|   -0.000182|
|         352|   -9.822394|   -9.573022|    0.060898|   -0.000182|
|         353|   -9.833620|   -9.582290|    0.060899|   -0.000182|
|         354|   -9.844873|   -9.591555|    0.060900|   -0.000182|
|         355|   -9.856153|   -9.600815|    0.060901|   -0.000182|
|         356|   -9.867459|   -9.610071|    0.060903|   -0.000182|
|         357|   -9.878789|   -9.619323|    0.060904|   -0.000182|
|         358|   -9.890145|   -9.628572|    0.060905|   -0.000182|
|         359|   -9.901525|   -9.637816|    0.060906|   -0.000182|
|         360|   -9.912928|   -9.647057|    0.060907|   -0.000182|
|         361|   -9.924355|   -9.656293|    0.060908|   -0.000182|
|         362|   -9.935805|   -9.665527|    0.060909|   -0.000182|
|         363|   -9.947276|   -9.674756|    0.060910|   -0.000182|
|         364|   -9.958770|   -9.683983|    0.060911|   -0.000182|
|         365|   -9.970284|   -9.693206|    0.060912|   -0.000182|
|         366|   -9.981819|   -9.702426|    0.060913|   -0.000182|
|         367|   -9.993374|   -9.711643|    0.060914|   -0.000182|
|         368|  -10.004949|   -9.720857|    0.060914|   -0.000182|
|         369|  -10.016542|   -9.730069|    0.060915|   -0.000182|
|         370|  -10.028153|   -9.739278|    0.060916|   -0.000182|
|         371|  -10.039782|   -9.748484|    0.060917|   -0.000182|
|         372|  -10.051429|   -9.757689|    0.060918|   -0.000182|
|         373|  -10.063092|   -9.766891|    0.060919|   -0.000182|
|         374|  -10.074771|   -9.776092|    0.060919|   -0.000182|
|         375|  -10.086465|   -9.785290|    0.060920|   -0.000182|
|         376|  -10.098174|   -9.794487|    0.060921|   -0.000182|
|         377|  -10.109897|   -9.803683|    0.060922|   -0.000182|
|         378|  -10.121634|   -9.812877|    0.060922|   -0.000182|
|         379|  -10.133383|   -9.822070|    0.060923|   -0.000182|
|         380|  -10.145145|   -9.831262|    0.060924|   -0.000182|
|         381|  -10.156919|   -9.840454|    0.060925|   -0.000182|
|         382|  -10.168704|   -9.849644|    0.060925|   -0.000182|
|         383|  -10.180499|   -9.858834|    0.060926|   -0.000182|
|         384|  -10.192305|   -9.868024|    0.060927|   -0.000182|
|         385|  -10.204120|   -9.877214|    0.060927|   -0.000182|
|         386|  -10.215943|   -9.886403|    0.060928|   -0.000182|
|         387|  -10.227774|   -9.895593|    0.060928|   -0.000182|
|         388|  -10.239613|   -9.904783|    0.060929|   -0.000182|
|         389|  -10.251459|   -9.913974|    0.060930|   -0.000182|
|         390|  -10.263311|   -9.923165|    0.060930|   -0.000182|
|         391|  -10.275169|   -9.932358|    0.060931|   -0.000182|
|         392|  -10.287032|   -9.941552|    0.060931|   -0.000182|
|         393|  -10.298899|   -9.950746|    0.060932|   -0.000182|
|         394|  -10.310770|   -9.959943|    0.060932|   -0.000182|
|         395|  -10.322644|   -9.969140|    0.060933|   -0.000182|
|         396|  -10.334520|   -9.978340|    0.060933|   -0.000182|
|         397|  -10.346399|   -9.987541|    0.060934|   -0.000182|
|         398|  -10.358279|   -9.996744|    0.060934|   -0.000182|
|         399|  -10.370160|  -10.005950|    0.060935|   -0.000182|
|         400|  -10.382041|  -10.015158|    0.060935|   -0.000182|
|         401|  -10.393921|  -10.024368|    0.060936|   -0.000182|
|         402|  -10.405800|  -10.033580|    0.060936|   -0.000182|
|         403|  -10.417678|  -10.042795|    0.060937|   -0.000182|
|         404|  -10.429553|  -10.052013|    0.060937|   -0.000182|
|         405|  -10.441425|  -10.061234|    0.060938|   -0.000182|
|         406|  -10.453294|  -10.070458|    0.060938|   -0.000182|
|         407|  -10.465159|  -10.079684|    0.060938|   -0.000182|
|         408|  -10.477019|  -10.088914|    0.060939|   -0.000182|
|         409|  -10.488874|  -10.098146|    0.060939|   -0.000182|
|         410|  -10.500723|  -10.107382|    0.060940|   -0.000182|
|         411|  -10.512565|  -10.116622|    0.060940|   -0.000182|
|         412|  -10.524401|  -10.125864|    0.060940|   -0.000182|
|         413|  -10.536229|  -10.135110|    0.060941|   -0.000182|
|         414|  -10.548049|  -10.144359|    0.060941|   -0.000182|
|         415|  -10.559860|  -10.153613|    0.060941|   -0.000182|
|         416|  -10.571662|  -10.162869|    0.060942|   -0.000182|
|         417|  -10.583453|  -10.172129|    0.060942|   -0.000182|
|         418|  -10.595235|  -10.181393|    0.060942|   -0.000182|
|         419|  -10.607006|  -10.190660|    0.060943|   -0.000182|
|         420|  -10.618765|  -10.199931|    0.060943|   -0.000182|
|         421|  -10.630512|  -10.209206|    0.060943|   -0.000182|
|         422|  -10.642247|  -10.218484|    0.060944|   -0.000182|
|         423|  -10.653969|  -10.227766|    0.060944|   -0.000182|
|         424|  -10.665678|  -10.237052|    0.060944|   -0.000182|
|         425|  -10.677372|  -10.246341|    0.060944|   -0.000182|
|         426|  -10.689052|  -10.255634|    0.060945|   -0.000182|
|         427|  -10.700717|  -10.264931|    0.060945|   -0.000182|
|         428|  -10.712366|  -10.274230|    0.060945|   -0.000182|
|         429|  -10.723999|  -10.283534|    0.060945|   -0.000182|
|         430|  -10.735617|  -10.292841|    0.060946|   -0.000182|
|         431|  -10.747217|  -10.302151|    0.060946|   -0.000182|
|         432|  -10.758799|  -10.311465|    0.060946|   -0.000182|
|         433|  -10.770364|  -10.320782|    0.060946|   -0.000182|
|         434|  -10.781911|  -10.330102|    0.060947|   -0.000182|
|         435|  -10.793439|  -10.339425|    0.060947|   -0.000182|
|         436|  -10.804948|  -10.348751|    0.060947|   -0.000182|
|         437|  -10.816437|  -10.358080|    0.060947|   -0.000182|
|         438|  -10.827907|  -10.367412|    0.060947|   -0.000182|
|         439|  -10.839356|  -10.376746|    0.060948|   -0.000182|
|         440|  -10.850784|  -10.386083|    0.060948|   -0.000182|
|         441|  -10.862191|  -10.395422|    0.060948|   -0.000182|
|         442|  -10.873577|  -10.404764|    0.060948|   -0.000182|
|         443|  -10.884941|  -10.414108|    0.060948|   -0.000182|
|         444|  -10.896283|  -10.423453|    0.060949|   -0.000182|
|         445|  -10.907602|  -10.432802|    0.060949|   -0.000182|
|         446|  -10.918898|  -10.442151|    0.060949|   -0.000182|
|         447|  -10.930171|  -10.451502|    0.060949|   -0.000182|
|         448|  -10.941420|  -10.460854|    0.060949|   -0.000182|
|         449|  -10.952645|  -10.470207|    0.060949|   -0.000182|
|         450|  -10.963846|  -10.479562|    0.060950|   -0.000182|
|         451|  -10.975023|  -10.488917|    0.060950|   -0.000182|
|         452|  -10.986175|  -10.498274|    0.060950|   -0.000182|
|         453|  -10.997301|  -10.507630|    0.060950|   -0.000182|
|         454|  -11.008402|  -10.516987|    0.060950|   -0.000182|
|         455|  -11.019478|  -10.526344|    0.060950|   -0.000182|
|         456|  -11.030528|  -10.535701|    0.060951|   -0.000182|
|         457|  -11.041550|  -10.545057|    0.060951|   -0.000182|
|         458|  -11.052548|  -10.554414|    0.060951|   -0.000182|
|         459|  -11.063518|  -10.563768|    0.060951|   -0.000182|
|         460|  -11.074462|  -10.573124|    0.060951|   -0.000182|
|         461|  -11.085377|  -10.582476|    0.060951|   -0.000182|
|         462|  -11.096266|  -10.591827|    0.060951|   -0.000182|
|         463|  -11.107127|  -10.601177|    0.060951|   -0.000182|
|         464|  -11.117960|  -10.610525|    0.060952|   -0.000182|
|         465|  -11.128766|  -10.619870|    0.060952|   -0.000182|
|         466|  -11.139543|  -10.629213|    0.060952|   -0.000182|
|         467|  -11.150292|  -10.638553|    0.060952|   -0.000182|
|         468|  -11.161012|  -10.647891|    0.060952|   -0.000182|
|         469|  -11.171704|  -10.657225|    0.060952|   -0.000182|
|         470|  -11.182367|  -10.666555|    0.060952|   -0.000182|
|         471|  -11.193001|  -10.675882|    0.060952|   -0.000182|
|         472|  -11.203605|  -10.685205|    0.060952|   -0.000182|
|         473|  -11.214180|  -10.694522|    0.060953|   -0.000182|
|         474|  -11.224726|  -10.703836|    0.060953|   -0.000182|
|         475|  -11.235243|  -10.713145|    0.060953|   -0.000182|
|         476|  -11.245730|  -10.722449|    0.060953|   -0.000182|
|         477|  -11.256187|  -10.731747|    0.060953|   -0.000182|
|         478|  -11.266614|  -10.741039|    0.060953|   -0.000182|
|         479|  -11.277012|  -10.750326|    0.060953|   -0.000182|
|         480|  -11.287379|  -10.759606|    0.060953|   -0.000182|
|         481|  -11.297716|  -10.768878|    0.060953|   -0.000182|
|         482|  -11.308023|  -10.778145|    0.060953|   -0.000182|
|         483|  -11.318300|  -10.787405|    0.060953|   -0.000182|
|         484|  -11.328546|  -10.796656|    0.060953|   -0.000182|
|         485|  -11.338762|  -10.805900|    0.060954|   -0.000182|
|         486|  -11.348948|  -10.815137|    0.060954|   -0.000182|
|         487|  -11.359103|  -10.824364|    0.060954|   -0.000182|
|         488|  -11.369228|  -10.833583|    0.060954|   -0.000182|
|         489|  -11.379322|  -10.842794|    0.060954|   -0.000182|
|         490|  -11.389385|  -10.851994|    0.060954|   -0.000182|
|         491|  -11.399418|  -10.861186|    0.060954|   -0.000182|
|         492|  -11.409420|  -10.870367|    0.060954|   -0.000182|
|         493|  -11.419393|  -10.879540|    0.060954|   -0.000182|
|         494|  -11.429334|  -10.888701|    0.060954|   -0.000182|
|         495|  -11.439245|  -10.897852|    0.060954|   -0.000182|
|         496|  -11.449126|  -10.906993|    0.060954|   -0.000182|
|         497|  -11.458975|  -10.916121|    0.060954|   -0.000182|
|         498|  -11.468795|  -10.925239|    0.060954|   -0.000182|
|         499|  -11.478583|  -10.934345|    0.060954|   -0.000182|
|         500|  -11.488342|  -10.943439|    0.060954|   -0.000182|
+-----------------------------------------------------------------------+
|        File Writing Summary       |              Filename             |
+-----------------------------------------------------------------------+
|SU2 restart                        |restart_flow.dat                   |
|Paraview                           |flow.vtu                           |
|Paraview surface                   |surface_flow.vtu                   |
|CSV file                           |surface_flow.csv                   |
+-----------------------------------------------------------------------+
+----------------------------------------------------------------+
|  Inner_Iter|    rms[Rho]|   rms[RhoE]|          CL|          CD|
+----------------------------------------------------------------+
|         501|  -11.498070|  -10.952522|    0.060955|   -0.000182|
|         502|  -11.507768|  -10.961591|    0.060955|   -0.000182|
|         503|  -11.517435|  -10.970648|    0.060955|   -0.000182|
|         504|  -11.527072|  -10.979692|    0.060955|   -0.000182|
|         505|  -11.536679|  -10.988723|    0.060955|   -0.000182|
|         506|  -11.546258|  -10.997742|    0.060955|   -0.000182|
|         507|  -11.555806|  -11.006748|    0.060955|   -0.000182|
|         508|  -11.565321|  -11.015736|    0.060955|   -0.000182|
|         509|  -11.574810|  -11.024714|    0.060955|   -0.000182|
|         510|  -11.584269|  -11.033678|    0.060955|   -0.000182|
|         511|  -11.593698|  -11.042626|    0.060955|   -0.000182|
|         512|  -11.603097|  -11.051561|    0.060955|   -0.000182|
|         513|  -11.612468|  -11.060480|    0.060955|   -0.000182|
|         514|  -11.621808|  -11.069384|    0.060955|   -0.000182|
|         515|  -11.631121|  -11.078275|    0.060955|   -0.000182|
|         516|  -11.640404|  -11.087149|    0.060955|   -0.000182|
|         517|  -11.649659|  -11.096009|    0.060955|   -0.000182|
|         518|  -11.658884|  -11.104851|    0.060955|   -0.000182|
|         519|  -11.668083|  -11.113681|    0.060955|   -0.000182|
|         520|  -11.677253|  -11.122493|    0.060955|   -0.000182|
|         521|  -11.686393|  -11.131289|    0.060955|   -0.000182|
|         522|  -11.695509|  -11.140072|    0.060955|   -0.000182|
|         523|  -11.704594|  -11.148836|    0.060956|   -0.000182|
|         524|  -11.713653|  -11.157586|    0.060956|   -0.000182|
|         525|  -11.722684|  -11.166318|    0.060956|   -0.000182|
|         526|  -11.731687|  -11.175034|    0.060956|   -0.000182|
|         527|  -11.740666|  -11.183735|    0.060956|   -0.000182|
|         528|  -11.749618|  -11.192418|    0.060956|   -0.000182|
|         529|  -11.758542|  -11.201086|    0.060956|   -0.000182|
|         530|  -11.767438|  -11.209735|    0.060956|   -0.000182|
|         531|  -11.776311|  -11.218370|    0.060956|   -0.000182|
|         532|  -11.785158|  -11.226989|    0.060956|   -0.000182|
|         533|  -11.793980|  -11.235591|    0.060956|   -0.000182|
|         534|  -11.802775|  -11.244176|    0.060956|   -0.000182|
|         535|  -11.811546|  -11.252744|    0.060956|   -0.000182|
|         536|  -11.820292|  -11.261296|    0.060956|   -0.000182|
|         537|  -11.829014|  -11.269833|    0.060956|   -0.000182|
|         538|  -11.837713|  -11.278352|    0.060956|   -0.000182|
|         539|  -11.846385|  -11.286854|    0.060956|   -0.000182|
|         540|  -11.855035|  -11.295340|    0.060956|   -0.000182|
|         541|  -11.863662|  -11.303810|    0.060956|   -0.000182|
|         542|  -11.872264|  -11.312263|    0.060956|   -0.000182|
|         543|  -11.880846|  -11.320703|    0.060956|   -0.000182|
|         544|  -11.889404|  -11.329122|    0.060956|   -0.000182|
|         545|  -11.897938|  -11.337527|    0.060956|   -0.000182|
|         546|  -11.906451|  -11.345915|    0.060956|   -0.000182|
|         547|  -11.914943|  -11.354289|    0.060956|   -0.000182|
|         548|  -11.923416|  -11.362649|    0.060956|   -0.000182|
|         549|  -11.931864|  -11.370989|    0.060956|   -0.000182|
|         550|  -11.940290|  -11.379315|    0.060956|   -0.000182|
|         551|  -11.948700|  -11.387627|    0.060956|   -0.000182|
|         552|  -11.957085|  -11.395921|    0.060956|   -0.000182|
|         553|  -11.965456|  -11.404205|    0.060956|   -0.000182|
|         554|  -11.973805|  -11.412472|    0.060956|   -0.000182|
|         555|  -11.982131|  -11.420719|    0.060956|   -0.000182|
|         556|  -11.990444|  -11.428960|    0.060956|   -0.000182|
|         557|  -11.998733|  -11.437179|    0.060956|   -0.000182|
|         558|  -12.007005|  -11.445386|    0.060956|   -0.000182|
|         559|  -12.015259|  -11.453579|    0.060956|   -0.000182|
|         560|  -12.023496|  -11.461758|    0.060956|   -0.000182|
|         561|  -12.031715|  -11.469923|    0.060956|   -0.000182|
|         562|  -12.039915|  -11.478072|    0.060956|   -0.000182|
|         563|  -12.048103|  -11.486212|    0.060956|   -0.000182|
|         564|  -12.056275|  -11.494341|    0.060956|   -0.000182|
|         565|  -12.064424|  -11.502447|    0.060957|   -0.000182|
|         566|  -12.072568|  -11.510554|    0.060957|   -0.000182|
|         567|  -12.080681|  -11.518633|    0.060957|   -0.000182|
|         568|  -12.088790|  -11.526707|    0.060957|   -0.000182|
|         569|  -12.096879|  -11.534767|    0.060957|   -0.000182|
|         570|  -12.104956|  -11.542818|    0.060957|   -0.000182|
|         571|  -12.113022|  -11.550858|    0.060957|   -0.000182|
|         572|  -12.121069|  -11.558883|    0.060957|   -0.000182|
|         573|  -12.129100|  -11.566894|    0.060957|   -0.000182|
|         574|  -12.137122|  -11.574898|    0.060957|   -0.000182|
|         575|  -12.145132|  -11.582893|    0.060957|   -0.000182|
|         576|  -12.153122|  -11.590869|    0.060957|   -0.000182|
|         577|  -12.161109|  -11.598845|    0.060957|   -0.000182|
|         578|  -12.169075|  -11.606801|    0.060957|   -0.000182|
|         579|  -12.177033|  -11.614751|    0.060957|   -0.000182|
|         580|  -12.184985|  -11.622696|    0.060957|   -0.000182|
|         581|  -12.192919|  -11.630624|    0.060957|   -0.000182|
|         582|  -12.200843|  -11.638544|    0.060957|   -0.000182|
|         583|  -12.208760|  -11.646461|    0.060957|   -0.000182|
|         584|  -12.216663|  -11.654361|    0.060957|   -0.000182|
|         585|  -12.224547|  -11.662248|    0.060957|   -0.000182|
|         586|  -12.232442|  -11.670144|    0.060957|   -0.000182|
|         587|  -12.240310|  -11.678016|    0.060957|   -0.000182|
|         588|  -12.248173|  -11.685885|    0.060957|   -0.000182|
|         589|  -12.256032|  -11.693751|    0.060957|   -0.000182|
|         590|  -12.263867|  -11.701593|    0.060957|   -0.000182|
|         591|  -12.271716|  -11.709448|    0.060957|   -0.000182|
|         592|  -12.279542|  -11.717284|    0.060957|   -0.000182|
|         593|  -12.287370|  -11.725123|    0.060957|   -0.000182|
|         594|  -12.295181|  -11.732944|    0.060957|   -0.000182|
|         595|  -12.302990|  -11.740766|    0.060957|   -0.000182|
|         596|  -12.310779|  -11.748567|    0.060957|   -0.000182|
|         597|  -12.318577|  -11.756378|    0.060957|   -0.000182|
|         598|  -12.326362|  -11.764178|    0.060957|   -0.000182|
|         599|  -12.334135|  -11.771967|    0.060957|   -0.000182|
|         600|  -12.341917|  -11.779763|    0.060957|   -0.000182|
|         601|  -12.349683|  -11.787548|    0.060957|   -0.000182|
|         602|  -12.357439|  -11.795325|    0.060957|   -0.000182|
|         603|  -12.365192|  -11.803092|    0.060957|   -0.000182|
|         604|  -12.372948|  -11.810867|    0.060957|   -0.000182|
|         605|  -12.380691|  -11.818628|    0.060957|   -0.000182|
|         606|  -12.388434|  -11.826390|    0.060957|   -0.000182|
|         607|  -12.396164|  -11.834143|    0.060957|   -0.000182|
|         608|  -12.403893|  -11.841891|    0.060957|   -0.000182|
|         609|  -12.411627|  -11.849647|    0.060957|   -0.000182|
|         610|  -12.419347|  -11.857388|    0.060957|   -0.000182|
|         611|  -12.427057|  -11.865120|    0.060957|   -0.000182|
|         612|  -12.434777|  -11.872861|    0.060957|   -0.000182|
|         613|  -12.442487|  -11.880593|    0.060957|   -0.000182|
|         614|  -12.450189|  -11.888318|    0.060957|   -0.000182|
|         615|  -12.457907|  -11.896057|    0.060957|   -0.000182|
|         616|  -12.465606|  -11.903782|    0.060957|   -0.000182|
|         617|  -12.473314|  -11.911515|    0.060957|   -0.000182|
|         618|  -12.480998|  -11.919223|    0.060957|   -0.000182|
|         619|  -12.488704|  -11.926951|    0.060957|   -0.000182|
|         620|  -12.496387|  -11.934658|    0.060957|   -0.000182|
|         621|  -12.504079|  -11.942379|    0.060957|   -0.000182|
|         622|  -12.511782|  -11.950102|    0.060957|   -0.000182|
|         623|  -12.519454|  -11.957801|    0.060957|   -0.000182|
|         624|  -12.527154|  -11.965525|    0.060957|   -0.000182|
|         625|  -12.534844|  -11.973240|    0.060957|   -0.000182|
|         626|  -12.542506|  -11.980928|    0.060957|   -0.000182|
|         627|  -12.550203|  -11.988648|    0.060957|   -0.000182|
|         628|  -12.557886|  -11.996359|    0.060957|   -0.000182|
|         629|  -12.565559|  -12.004056|    0.060957|   -0.000182|
|         630|  -12.573241|  -12.011772|    0.060957|   -0.000182|
|         631|  -12.580924|  -12.019474|    0.060957|   -0.000182|
|         632|  -12.588600|  -12.027179|    0.060957|   -0.000182|
|         633|  -12.596291|  -12.034896|    0.060957|   -0.000182|
|         634|  -12.603957|  -12.042588|    0.060957|   -0.000182|
|         635|  -12.611644|  -12.050301|    0.060957|   -0.000182|
|         636|  -12.619314|  -12.058000|    0.060957|   -0.000182|
|         637|  -12.627013|  -12.065724|    0.060957|   -0.000182|
|         638|  -12.634689|  -12.073424|    0.060957|   -0.000182|
|         639|  -12.642352|  -12.081113|    0.060957|   -0.000182|
|         640|  -12.650060|  -12.088847|    0.060957|   -0.000182|
|         641|  -12.657740|  -12.096554|    0.060957|   -0.000182|
|         642|  -12.665425|  -12.104264|    0.060957|   -0.000182|
|         643|  -12.673105|  -12.111972|    0.060957|   -0.000182|
|         644|  -12.680794|  -12.119690|    0.060957|   -0.000182|
|         645|  -12.688467|  -12.127387|    0.060957|   -0.000182|
|         646|  -12.696186|  -12.135134|    0.060957|   -0.000182|
|         647|  -12.703878|  -12.142851|    0.060957|   -0.000182|
|         648|  -12.711544|  -12.150538|    0.060957|   -0.000182|
|         649|  -12.719258|  -12.158285|    0.060957|   -0.000182|
|         650|  -12.726956|  -12.165999|    0.060957|   -0.000182|
|         651|  -12.734630|  -12.173705|    0.060957|   -0.000182|
|         652|  -12.742338|  -12.181437|    0.060957|   -0.000182|
|         653|  -12.750037|  -12.189161|    0.060957|   -0.000182|
|         654|  -12.757777|  -12.196919|    0.060957|   -0.000182|
|         655|  -12.765464|  -12.204638|    0.060957|   -0.000182|
|         656|  -12.773181|  -12.212376|    0.060957|   -0.000182|
|         657|  -12.780875|  -12.220091|    0.060957|   -0.000182|
|         658|  -12.788594|  -12.227834|    0.060957|   -0.000182|
|         659|  -12.796316|  -12.235584|    0.060957|   -0.000182|
|         660|  -12.804052|  -12.243347|    0.060957|   -0.000182|
|         661|  -12.811763|  -12.251082|    0.060957|   -0.000182|
|         662|  -12.819480|  -12.258823|    0.060957|   -0.000182|
|         663|  -12.827213|  -12.266576|    0.060957|   -0.000182|
|         664|  -12.834948|  -12.274336|    0.060957|   -0.000182|
|         665|  -12.842698|  -12.282105|    0.060957|   -0.000182|
|         666|  -12.850406|  -12.289842|    0.060957|   -0.000182|
|         667|  -12.858139|  -12.297600|    0.060957|   -0.000182|
|         668|  -12.865899|  -12.305372|    0.060957|   -0.000182|
|         669|  -12.873642|  -12.313141|    0.060957|   -0.000182|
|         670|  -12.881405|  -12.320923|    0.060957|   -0.000182|
|         671|  -12.889148|  -12.328691|    0.060957|   -0.000182|
|         672|  -12.896923|  -12.336483|    0.060957|   -0.000182|
|         673|  -12.904670|  -12.344254|    0.060957|   -0.000182|
|         674|  -12.912451|  -12.352058|    0.060957|   -0.000182|
|         675|  -12.920217|  -12.359838|    0.060957|   -0.000182|
|         676|  -12.927986|  -12.367629|    0.060957|   -0.000182|
|         677|  -12.935759|  -12.375416|    0.060957|   -0.000182|
|         678|  -12.943535|  -12.383212|    0.060957|   -0.000182|
|         679|  -12.951330|  -12.391034|    0.060957|   -0.000182|
|         680|  -12.959100|  -12.398821|    0.060957|   -0.000182|
|         681|  -12.966869|  -12.406616|    0.060957|   -0.000182|
|         682|  -12.974684|  -12.414444|    0.060957|   -0.000182|
|         683|  -12.982486|  -12.422266|    0.060957|   -0.000182|
|         684|  -12.990283|  -12.430074|    0.060957|   -0.000182|
|         685|  -12.998083|  -12.437896|    0.060957|   -0.000182|
|         686|  -13.005911|  -12.445736|    0.060957|   -0.000182|

----------------------------- Solver Exit -------------------------------
All convergence criteria satisfied.
+-----------------------------------------------------------------------+
|      Convergence Field     |     Value    |   Criterion  |  Converged |
+-----------------------------------------------------------------------+
|                    rms[Rho]|      -13.0059|         < -13|         Yes|
+-----------------------------------------------------------------------+
-------------------------------------------------------------------------
+-----------------------------------------------------------------------+
|        File Writing Summary       |              Filename             |
+-----------------------------------------------------------------------+
|SU2 restart                        |restart_flow.dat                   |
|Paraview                           |flow.vtu                           |
|Paraview surface                   |surface_flow.vtu                   |
|CSV file                           |surface_flow.csv                   |
+-----------------------------------------------------------------------+

------------------------- Solver Postprocessing -------------------------
Deleted CNumerics container.
Deleted CIntegration container.
Deleted CSolver container.
Deleted CIteration container.
Deleted CInterpolator container.
Deleted CInterface container.
Deleted CGeometry container.
Deleted CFreeFormDefBox class.
Deleted CSurfaceMovement class.
Deleted CVolumetricMovement class.
Deleted CConfig container.
Deleted nInst container.
Deleted COutput class.
-------------------------------------------------------------------------

------------------------- Exit Success (SU2_CFD) ------------------------

