
-------------------------------------------------------------------------
|    ___ _   _ ___                                                      |
|   / __| | | |_  )   Release 7.0.5 "Blackbird"                         |
|   \__ \ |_| |/ /                                                      |
|   |___/\___//___|   Suite (Computational Fluid Dynamics Code)         |
|                                                                       |
-------------------------------------------------------------------------
| SU2 Project Website: https://su2code.github.io                        |
|                                                                       |
| The SU2 Project is maintained by the SU2 Foundation                   |
| (http://su2foundation.org)                                            |
-------------------------------------------------------------------------
| Copyright 2012-2020, SU2 Contributors                                 |
|                                                                       |
| SU2 is free software; you can redistribute it and/or                  |
| modify it under the terms of the GNU Lesser General Public            |
| License as published by the Free Software Foundation; either          |
| version 2.1 of the License, or (at your option) any later version.    |
|                                                                       |
| SU2 is distributed in the hope that it will be useful,                |
| but WITHOUT ANY WARRANTY; without even the implied warranty of        |
| MERCHANTABILITY or FITNESS FOR A PARTICULAR PURPOSE. See the GNU      |
| Lesser General Public License for more details.                       |
|                                                                       |
| You should have received a copy of the GNU Lesser General Public      |
| License along with SU2. If not, see <http://www.gnu.org/licenses/>.   |
-------------------------------------------------------------------------

Parsing config file for zone 0

----------------- Physical Case Definition ( Zone 0 ) -------------------
Compressible Euler equations.
Mach number: 0.1.
Angle of attack (AoA): -0.5 deg, and angle of sideslip (AoS): 0 deg.
No restart solution, use the values at infinity (freestream).
Non-Dimensional simulation (P=1.0, Rho=1.0, T=1.0 at the farfield).
The reference area is 1 m^2.
The semi-span will be computed using the max y(3D) value.
The reference length is 1 m.
Reference origin for moment evaluation is (0.25, 0, 0).
Surface(s) where the force coefficients are evaluated: airfoil.

Surface(s) plotted in the output file: airfoil.
Surface(s) affected by the design variables: airfoil.
Input mesh file name: mesh_NACA0012_inv_deform.su2

--------------- Space Numerical Integration ( Zone 0 ) ------------------
Jameson-Schmidt-Turkel scheme (2nd order in space) for the flow inviscid terms.
JST viscous coefficients (2nd & 4th): 0.5, 0.02.
The method includes a grid stretching correction (p = 0.3).
Gradient for upwind reconstruction: Green-Gauss.
Gradient for viscous and source terms: Green-Gauss.

--------------- Time Numerical Integration  ( Zone 0 ) ------------------
Local time stepping (steady state simulation).
Euler implicit method for the flow equations.
FGMRES is used for solving the linear system.
Using a LU-SGS preconditioning.
Convergence criteria of the linear solver: 0.0001.
Max number of linear iterations: 2.
V Multigrid Cycle, with 2 multigrid levels.
Damping factor for the residual restriction: 1.
Damping factor for the correction prolongation: 1.
No CFL adaptation.
+-------------------------------------------+
|  MG Level| Presmooth|PostSmooth|CorrectSmo|
+-------------------------------------------+
|         0|         1|         0|         0|
|         1|         2|         0|         0|
|         2|         3|         0|         0|
+-------------------------------------------+
Courant-Friedrichs-Lewy number:       10

------------------ Convergence Criteria  ( Zone 0 ) ---------------------
Maximum number of solver subiterations: 1000.
Begin convergence monitoring at iteration 10.
Residual minimum value: 1e-13.
Cauchy series min. value: 1e-06.
Number of Cauchy elements: 100.
Begin windowed time average at iteration 0.

-------------------- Output Information ( Zone 0 ) ----------------------
Writing solution files every 250 iterations.
Writing the convergence history file every 1 inner iterations.
Writing the screen convergence history every 1 inner iterations.
The tabular file format is CSV (.csv).
Convergence history file name: history_direct.
Forces breakdown file name: forces_breakdown.dat.
Surface file name: surface_flow.
Volume file name: flow.
Restart file name: restart_flow.dat.

------------- Config File Boundary Information ( Zone 0 ) ---------------
+-----------------------------------------------------------------------+
|                        Marker Type|                        Marker Name|
+-----------------------------------------------------------------------+
|                         Euler wall|                            airfoil|
+-----------------------------------------------------------------------+
|                          Far-field|                           farfield|
+-----------------------------------------------------------------------+

-------------------- Output Preprocessing ( Zone 0 ) --------------------
Screen output fields: INNER_ITER, RMS_DENSITY, RMS_ENERGY, LIFT, DRAG
History output group(s): ITER, RMS_RES, AERO_COEFF
Convergence field(s): RMS_DENSITY
Warning: No (valid) fields chosen for time convergence monitoring. Time convergence monitoring inactive.
Volume output fields: COORDINATES, SOLUTION, PRIMITIVE

------------------- Geometry Preprocessing ( Zone 0 ) -------------------
Two dimensional problem.
5233 grid points.
10216 volume elements.
2 surface markers.
200 boundary elements in index 0 (Marker = airfoil).
50 boundary elements in index 1 (Marker = farfield).
10216 triangles.
Setting point connectivity.
Renumbering points (Reverse Cuthill McKee Ordering).
Recomputing point connectivity.
Setting element connectivity.
Checking the numerical grid orientation.
Identifying edges and vertices.
Computing centers of gravity.
Setting the control volume structure.
Area of the computational grid: 1253.25.
Searching for the closest normal neighbors to the surfaces.
Storing a mapping from global to local point index.
Compute the surface curvature.
Max K: 7835.1. Mean K: 34.8203. Standard deviation K: 494.448.
Checking for periodicity.
Computing mesh quality statistics for the dual control volumes.
+--------------------------------------------------------------+
|           Mesh Quality Metric|        Minimum|        Maximum|
+--------------------------------------------------------------+
|    Orthogonality Angle (deg.)|        62.6722|        89.7085|
|     CV Face Area Aspect Ratio|              1|        7.18345|
|           CV Sub-Volume Ratio|        1.00285|        6.47829|
+--------------------------------------------------------------+
Setting the multigrid structure.
+-------------------------------------------+
|  MG Level|       CVs|Aggl. Rate|       CFL|
+-------------------------------------------+
|         0|      5233|    1/1.00|        10|
|         1|      1533|    1/3.41|   8.11871|
|         2|       443|    1/3.46|    6.5465|
+-------------------------------------------+
Finding max control volume width.
Wetted area = 2.03922 m.
Area projection in the x-plane = 0.119982 m, y-plane = 0.999845 m.
Max. coordinate in the x-direction = 1 m, y-direction = 0.0600008 m.
Min. coordinate in the x-direction = 0 m, y-direction = -0.060013 m.
Checking if Euler & Symmetry markers are straight/plane:
Boundary marker airfoil is NOT a single straight.
Computing wall distances.

-------------------- Solver Preprocessing ( Zone 0 ) --------------------
Inviscid flow: Computing density based on free-stream
temperature and pressure using the ideal gas law.
Force coefficients computed using free-stream values.

-- Models:
+------------------------------------------------------------------------------+
|          Viscosity Model|        Conductivity Model|              Fluid Model|
+------------------------------------------------------------------------------+
|                        -|                         -|             STANDARD_AIR|
+------------------------------------------------------------------------------+
-- Fluid properties:
+------------------------------------------------------------------------------+
|                  Name|    Dim. value|    Ref. value|      Unit|Non-dim. value|
+------------------------------------------------------------------------------+
|          Gas Constant|       287.058|       287.058|  N.m/kg.K|             1|
|      Spec. Heat Ratio|             -|             -|         -|           1.4|
+------------------------------------------------------------------------------+
-- Initial and free-stream conditions:
+------------------------------------------------------------------------------+
|                  Name|    Dim. value|    Ref. value|      Unit|Non-dim. value|
+------------------------------------------------------------------------------+
|       Static Pressure|        101325|        101325|        Pa|             1|
|               Density|       1.22498|       1.22498|    kg/m^3|             1|
|           Temperature|        288.15|        288.15|         K|             1|
|          Total Energy|        207368|       82715.8|   m^2/s^2|         2.507|
|            Velocity-X|       34.0284|       287.603|       m/s|      0.118317|
|            Velocity-Y|     -0.296961|       287.603|       m/s|   -0.00103254|
|    Velocity Magnitude|       34.0297|       287.603|       m/s|      0.118322|
+------------------------------------------------------------------------------+
|           Mach Number|             -|             -|         -|           0.1|
+------------------------------------------------------------------------------+
Initialize Jacobian structure (Euler). MG level: 0.
Initialize Jacobian structure (Euler). MG level: 1.
Initialize Jacobian structure (Euler). MG level: 2.

------------------- Numerics Preprocessing ( Zone 0 ) -------------------

----------------- Integration Preprocessing ( Zone 0 ) ------------------

------------------- Iteration Preprocessing ( Zone 0 ) ------------------
Euler/Navier-Stokes/RANS fluid iteration.

------------------------------ Begin Solver -----------------------------

Simulation Run using the Single-zone Driver
+----------------------------------------------------------------+
|  Inner_Iter|    rms[Rho]|   rms[RhoE]|          CL|          CD|
+----------------------------------------------------------------+
|           0|   -4.493769|   -3.948834|   -0.539259|    1.371396|
|           1|   -4.619563|   -4.068651|    0.078767|   -0.138833|
|           2|   -4.731019|   -4.182359|    0.158970|   -0.249581|
|           3|   -4.706505|   -4.151853|    0.015587|    0.062377|
|           4|   -4.652467|   -4.105459|   -0.150392|    0.184136|
|           5|   -4.794367|   -4.242731|   -0.077860|    0.029777|
|           6|   -4.754902|   -4.207468|    0.045149|   -0.088011|
|           7|   -4.968397|   -4.417520|    0.015384|   -0.014769|
|           8|   -4.949350|   -4.401908|   -0.056344|    0.080470|
|           9|   -5.163483|   -4.613717|   -0.056825|    0.030280|
|          10|   -5.208287|   -4.659673|   -0.022622|   -0.050031|
|          11|   -5.311638|   -4.762851|   -0.012523|   -0.016914|
|          12|   -5.440275|   -4.892435|   -0.028837|    0.041652|
|          13|   -5.460313|   -4.910476|   -0.044992|    0.016670|
|          14|   -5.619177|   -5.072042|   -0.042666|   -0.027627|
|          15|   -5.643597|   -5.092302|   -0.031762|   -0.010022|
|          16|   -5.732254|   -5.187219|   -0.029976|    0.022919|
|          17|   -5.861078|   -5.308929|   -0.038725|    0.010305|
|          18|   -5.871768|   -5.326343|   -0.046219|   -0.014221|
|          19|   -6.037548|   -5.486267|   -0.044209|   -0.006233|
|          20|   -5.984235|   -5.439622|   -0.037686|    0.010863|
|          21|   -6.188195|   -5.639046|   -0.037886|    0.005578|
|          22|   -6.085931|   -5.541407|   -0.045374|   -0.006213|
|          23|   -6.281734|   -5.736174|   -0.048956|   -0.003242|
|          24|   -6.178524|   -5.633820|   -0.044318|    0.004538|
|          25|   -6.339000|   -5.795866|   -0.040733|    0.002744|
|          26|   -6.296576|   -5.753495|   -0.044422|   -0.002626|
|          27|   -6.367758|   -5.828171|   -0.049045|   -0.001811|
|          28|   -6.433014|   -5.892172|   -0.047992|    0.001891|
|          29|   -6.435330|   -5.894231|   -0.044531|    0.001600|
|          30|   -6.499954|   -5.963293|   -0.044680|   -0.001099|
|          31|   -6.498778|   -5.962950|   -0.047613|   -0.001288|
|          32|   -6.539829|   -6.005970|   -0.048991|    0.000602|
|          33|   -6.577074|   -6.042897|   -0.047657|    0.001154|
|          34|   -6.571159|   -6.036590|   -0.046325|   -0.000129|
|          35|   -6.589431|   -6.057458|   -0.046963|   -0.000898|
|          36|   -6.594755|   -6.063200|   -0.048420|   -0.000236|
|          37|   -6.608612|   -6.078639|   -0.048933|    0.000550|
|          38|   -6.621422|   -6.092232|   -0.048343|    0.000332|
|          39|   -6.626524|   -6.097695|   -0.047897|   -0.000356|
|          40|   -6.634953|   -6.106740|   -0.048299|   -0.000485|
|          41|   -6.642347|   -6.115097|   -0.049034|   -0.000073|
|          42|   -6.656240|   -6.130765|   -0.049340|    0.000159|
|          43|   -6.669707|   -6.145336|   -0.049181|   -0.000076|
|          44|   -6.679793|   -6.155736|   -0.049073|   -0.000367|
|          45|   -6.692268|   -6.168945|   -0.049311|   -0.000346|
|          46|   -6.703955|   -6.181601|   -0.049687|   -0.000161|
|          47|   -6.719058|   -6.197907|   -0.049882|   -0.000132|
|          48|   -6.734948|   -6.214360|   -0.049880|   -0.000283|
|          49|   -6.746566|   -6.225778|   -0.049872|   -0.000388|
|          50|   -6.757811|   -6.237318|   -0.049990|   -0.000342|
|          51|   -6.769673|   -6.249832|   -0.050172|   -0.000264|
|          52|   -6.781522|   -6.262165|   -0.050292|   -0.000283|
|          53|   -6.793010|   -6.273783|   -0.050323|   -0.000364|
|          54|   -6.802723|   -6.283402|   -0.050330|   -0.000393|
|          55|   -6.811769|   -6.292648|   -0.050378|   -0.000350|
|          56|   -6.821609|   -6.302981|   -0.050463|   -0.000313|
|          57|   -6.831734|   -6.313579|   -0.050542|   -0.000331|
|          58|   -6.841743|   -6.323935|   -0.050587|   -0.000367|
|          59|   -6.851863|   -6.334369|   -0.050613|   -0.000368|
|          60|   -6.862817|   -6.345706|   -0.050650|   -0.000340|
|          61|   -6.874985|   -6.358287|   -0.050713|   -0.000323|
|          62|   -6.887954|   -6.371620|   -0.050793|   -0.000333|
|          63|   -6.901405|   -6.385350|   -0.050868|   -0.000347|
|          64|   -6.915468|   -6.399605|   -0.050934|   -0.000343|
|          65|   -6.930390|   -6.414631|   -0.051001|   -0.000330|
|          66|   -6.946100|   -6.430363|   -0.051085|   -0.000327|
|          67|   -6.962120|   -6.446320|   -0.051187|   -0.000335|
|          68|   -6.978143|   -6.462181|   -0.051295|   -0.000342|
|          69|   -6.994193|   -6.477967|   -0.051397|   -0.000342|
|          70|   -7.010220|   -6.493647|   -0.051496|   -0.000340|
|          71|   -7.025990|   -6.509030|   -0.051602|   -0.000344|
|          72|   -7.041228|   -6.523863|   -0.051717|   -0.000353|
|          73|   -7.055899|   -6.538086|   -0.051836|   -0.000359|
|          74|   -7.070191|   -6.551878|   -0.051949|   -0.000362|
|          75|   -7.084210|   -6.565372|   -0.052055|   -0.000365|
|          76|   -7.097904|   -6.578559|   -0.052160|   -0.000372|
|          77|   -7.111286|   -6.591457|   -0.052266|   -0.000379|
|          78|   -7.124541|   -6.604224|   -0.052370|   -0.000384|
|          79|   -7.137898|   -6.617079|   -0.052468|   -0.000387|
|          80|   -7.151453|   -6.630136|   -0.052558|   -0.000390|
|          81|   -7.165176|   -6.643393|   -0.052644|   -0.000394|
|          82|   -7.179052|   -6.656844|   -0.052728|   -0.000397|
|          83|   -7.193117|   -6.670522|   -0.052810|   -0.000399|
|          84|   -7.207375|   -6.684438|   -0.052886|   -0.000400|
|          85|   -7.221748|   -6.698527|   -0.052959|   -0.000401|
|          86|   -7.236148|   -6.712708|   -0.053028|   -0.000402|
|          87|   -7.250535|   -6.726938|   -0.053098|   -0.000402|
|          88|   -7.264895|   -6.741193|   -0.053166|   -0.000401|
|          89|   -7.279200|   -6.755431|   -0.053234|   -0.000400|
|          90|   -7.293435|   -6.769627|   -0.053302|   -0.000400|
|          91|   -7.307657|   -6.783821|   -0.053370|   -0.000399|
|          92|   -7.321974|   -6.798112|   -0.053440|   -0.000398|
|          93|   -7.336498|   -6.812607|   -0.053511|   -0.000397|
|          94|   -7.351310|   -6.827390|   -0.053585|   -0.000396|
|          95|   -7.366483|   -6.842542|   -0.053659|   -0.000395|
|          96|   -7.382084|   -6.858149|   -0.053736|   -0.000395|
|          97|   -7.398152|   -6.874281|   -0.053815|   -0.000394|
|          98|   -7.414665|   -6.890950|   -0.053895|   -0.000394|
|          99|   -7.431535|   -6.908093|   -0.053977|   -0.000395|
|         100|   -7.448619|   -6.925592|   -0.054059|   -0.000395|
|         101|   -7.465741|   -6.943289|   -0.054143|   -0.000396|
|         102|   -7.482709|   -6.961004|   -0.054226|   -0.000397|
|         103|   -7.499335|   -6.978547|   -0.054310|   -0.000399|
|         104|   -7.515452|   -6.995728|   -0.054393|   -0.000400|
|         105|   -7.530935|   -7.012387|   -0.054475|   -0.000402|
|         106|   -7.545731|   -7.028423|   -0.054556|   -0.000404|
|         107|   -7.559867|   -7.043820|   -0.054635|   -0.000406|
|         108|   -7.573452|   -7.058641|   -0.054712|   -0.000408|
|         109|   -7.586651|   -7.073025|   -0.054787|   -0.000409|
|         110|   -7.599659|   -7.087159|   -0.054860|   -0.000411|
|         111|   -7.612682|   -7.101258|   -0.054930|   -0.000413|
|         112|   -7.625903|   -7.115527|   -0.054999|   -0.000415|
|         113|   -7.639454|   -7.130135|   -0.055065|   -0.000416|
|         114|   -7.653402|   -7.145186|   -0.055129|   -0.000418|
|         115|   -7.667748|   -7.160716|   -0.055192|   -0.000419|
|         116|   -7.682432|   -7.176692|   -0.055253|   -0.000420|
|         117|   -7.697338|   -7.193012|   -0.055312|   -0.000421|
|         118|   -7.712308|   -7.209512|   -0.055371|   -0.000422|
|         119|   -7.727169|   -7.225988|   -0.055429|   -0.000423|
|         120|   -7.741758|   -7.242237|   -0.055486|   -0.000423|
|         121|   -7.755961|   -7.258093|   -0.055543|   -0.000423|
|         122|   -7.769738|   -7.273469|   -0.055600|   -0.000424|
|         123|   -7.783134|   -7.288378|   -0.055658|   -0.000424|
|         124|   -7.796279|   -7.302945|   -0.055715|   -0.000424|
|         125|   -7.809365|   -7.317389|   -0.055772|   -0.000424|
|         126|   -7.822612|   -7.331979|   -0.055831|   -0.000424|
|         127|   -7.836225|   -7.346992|   -0.055889|   -0.000424|
|         128|   -7.850359|   -7.362656|   -0.055948|   -0.000424|
|         129|   -7.865084|   -7.379112|   -0.056007|   -0.000424|
|         130|   -7.880368|   -7.396378|   -0.056067|   -0.000424|
|         131|   -7.896074|   -7.414336|   -0.056127|   -0.000424|
|         132|   -7.911965|   -7.432732|   -0.056187|   -0.000424|
|         133|   -7.927733|   -7.451188|   -0.056247|   -0.000425|
|         134|   -7.943034|   -7.469243|   -0.056307|   -0.000425|
|         135|   -7.957537|   -7.486407|   -0.056367|   -0.000425|
|         136|   -7.970977|   -7.502236|   -0.056425|   -0.000426|
|         137|   -7.983206|   -7.516424|   -0.056484|   -0.000426|
|         138|   -7.994231|   -7.528877|   -0.056541|   -0.000427|
|         139|   -8.004214|   -7.539743|   -0.056596|   -0.000427|
|         140|   -8.013453|   -7.549394|   -0.056651|   -0.000428|
|         141|   -8.022322|   -7.558353|   -0.056705|   -0.000429|
|         142|   -8.031220|   -7.567203|   -0.056757|   -0.000429|
|         143|   -8.040504|   -7.576497|   -0.056808|   -0.000430|
|         144|   -8.050458|   -7.586692|   -0.056857|   -0.000431|
|         145|   -8.061255|   -7.598105|   -0.056905|   -0.000432|
|         146|   -8.072949|   -7.610888|   -0.056952|   -0.000433|
|         147|   -8.085472|   -7.625024|   -0.056998|   -0.000433|
|         148|   -8.098641|   -7.640325|   -0.057042|   -0.000434|
|         149|   -8.112185|   -7.656451|   -0.057085|   -0.000435|
|         150|   -8.125778|   -7.672943|   -0.057127|   -0.000436|
|         151|   -8.139086|   -7.689288|   -0.057169|   -0.000436|
|         152|   -8.151830|   -7.705000|   -0.057209|   -0.000437|
|         153|   -8.163836|   -7.719717|   -0.057248|   -0.000438|
|         154|   -8.175064|   -7.733277|   -0.057287|   -0.000438|
|         155|   -8.185614|   -7.745742|   -0.057324|   -0.000439|
|         156|   -8.195693|   -7.757383|   -0.057362|   -0.000440|
|         157|   -8.205570|   -7.768606|   -0.057398|   -0.000440|
|         158|   -8.215523|   -7.779871|   -0.057434|   -0.000440|
|         159|   -8.225789|   -7.791603|   -0.057470|   -0.000441|
|         160|   -8.236524|   -7.804131|   -0.057506|   -0.000441|
|         161|   -8.247783|   -7.817633|   -0.057541|   -0.000442|
|         162|   -8.259509|   -7.832116|   -0.057576|   -0.000442|
|         163|   -8.271541|   -7.847410|   -0.057610|   -0.000442|
|         164|   -8.283630|   -7.863173|   -0.057644|   -0.000442|
|         165|   -8.295477|   -7.878929|   -0.057678|   -0.000443|
|         166|   -8.306772|   -7.894124|   -0.057711|   -0.000443|
|         167|   -8.317249|   -7.908209|   -0.057744|   -0.000443|
|         168|   -8.326733|   -7.920747|   -0.057776|   -0.000443|
|         169|   -8.335172|   -7.931504|   -0.057808|   -0.000443|
|         170|   -8.342646|   -7.940503|   -0.057839|   -0.000444|
|         171|   -8.349352|   -7.948015|   -0.057869|   -0.000444|
|         172|   -8.355562|   -7.954501|   -0.057899|   -0.000444|
|         173|   -8.361581|   -7.960514|   -0.057928|   -0.000444|
|         174|   -8.367700|   -7.966615|   -0.057956|   -0.000445|
|         175|   -8.374165|   -7.973291|   -0.057984|   -0.000445|
|         176|   -8.381149|   -7.980911|   -0.058010|   -0.000445|
|         177|   -8.388741|   -7.989697|   -0.058037|   -0.000445|
|         178|   -8.396941|   -7.999713|   -0.058062|   -0.000446|
|         179|   -8.405667|   -8.010865|   -0.058087|   -0.000446|
|         180|   -8.414766|   -8.022920|   -0.058111|   -0.000446|
|         181|   -8.424042|   -8.035533|   -0.058135|   -0.000447|
|         182|   -8.433285|   -8.048301|   -0.058158|   -0.000447|
|         183|   -8.442307|   -8.060823|   -0.058180|   -0.000447|
|         184|   -8.450969|   -8.072770|   -0.058202|   -0.000448|
|         185|   -8.459201|   -8.083944|   -0.058224|   -0.000448|
|         186|   -8.467010|   -8.094296|   -0.058244|   -0.000448|
|         187|   -8.474461|   -8.103930|   -0.058265|   -0.000449|
|         188|   -8.481664|   -8.113054|   -0.058285|   -0.000449|
|         189|   -8.488739|   -8.121929|   -0.058305|   -0.000449|
|         190|   -8.495797|   -8.130811|   -0.058324|   -0.000449|
|         191|   -8.502916|   -8.139904|   -0.058343|   -0.000450|
|         192|   -8.510134|   -8.149327|   -0.058362|   -0.000450|
|         193|   -8.517444|   -8.159098|   -0.058381|   -0.000450|
|         194|   -8.524795|   -8.169136|   -0.058400|   -0.000450|
|         195|   -8.532107|   -8.179271|   -0.058418|   -0.000450|
|         196|   -8.539283|   -8.189270|   -0.058436|   -0.000451|
|         197|   -8.546225|   -8.198878|   -0.058454|   -0.000451|
|         198|   -8.552854|   -8.207853|   -0.058472|   -0.000451|
|         199|   -8.559123|   -8.216017|   -0.058489|   -0.000451|
|         200|   -8.565021|   -8.223285|   -0.058507|   -0.000451|
|         201|   -8.570583|   -8.229681|   -0.058524|   -0.000451|
|         202|   -8.575874|   -8.235335|   -0.058541|   -0.000451|
|         203|   -8.580990|   -8.240455|   -0.058557|   -0.000451|
|         204|   -8.586033|   -8.245295|   -0.058573|   -0.000451|
|         205|   -8.591107|   -8.250115|   -0.058589|   -0.000451|
|         206|   -8.596301|   -8.255152|   -0.058605|   -0.000451|
|         207|   -8.601679|   -8.260593|   -0.058621|   -0.000452|
|         208|   -8.607282|   -8.266560|   -0.058636|   -0.000452|
|         209|   -8.613117|   -8.273110|   -0.058651|   -0.000452|
|         210|   -8.619166|   -8.280226|   -0.058665|   -0.000452|
|         211|   -8.625384|   -8.287832|   -0.058680|   -0.000452|
|         212|   -8.631711|   -8.295807|   -0.058694|   -0.000452|
|         213|   -8.638080|   -8.303997|   -0.058708|   -0.000452|
|         214|   -8.644424|   -8.312247|   -0.058721|   -0.000452|
|         215|   -8.650689|   -8.320418|   -0.058735|   -0.000452|
|         216|   -8.656836|   -8.328407|   -0.058748|   -0.000452|
|         217|   -8.662849|   -8.336161|   -0.058761|   -0.000452|
|         218|   -8.668730|   -8.343676|   -0.058773|   -0.000452|
|         219|   -8.674499|   -8.350992|   -0.058786|   -0.000452|
|         220|   -8.680183|   -8.358176|   -0.058798|   -0.000452|
|         221|   -8.685814|   -8.365303|   -0.058811|   -0.000452|
|         222|   -8.691419|   -8.372441|   -0.058823|   -0.000453|
|         223|   -8.697014|   -8.379630|   -0.058835|   -0.000453|
|         224|   -8.702605|   -8.386880|   -0.058847|   -0.000453|
|         225|   -8.708185|   -8.394164|   -0.058858|   -0.000453|
|         226|   -8.713733|   -8.401420|   -0.058870|   -0.000453|
|         227|   -8.719224|   -8.408563|   -0.058881|   -0.000453|
|         228|   -8.724628|   -8.415495|   -0.058893|   -0.000453|
|         229|   -8.729914|   -8.422120|   -0.058904|   -0.000453|
|         230|   -8.735061|   -8.428362|   -0.058915|   -0.000453|
|         231|   -8.740055|   -8.434173|   -0.058927|   -0.000453|
|         232|   -8.744894|   -8.439544|   -0.058938|   -0.000453|
|         233|   -8.749587|   -8.444506|   -0.058948|   -0.000453|
|         234|   -8.754155|   -8.449127|   -0.058959|   -0.000453|
|         235|   -8.758627|   -8.453504|   -0.058970|   -0.000453|
|         236|   -8.763037|   -8.457747|   -0.058980|   -0.000453|
|         237|   -8.767419|   -8.461974|   -0.058990|   -0.000453|
|         238|   -8.771807|   -8.466290|   -0.059001|   -0.000453|
|         239|   -8.776228|   -8.470783|   -0.059011|   -0.000453|
|         240|   -8.780701|   -8.475518|   -0.059020|   -0.000453|
|         241|   -8.785237|   -8.480529|   -0.059030|   -0.000453|
|         242|   -8.789840|   -8.485824|   -0.059040|   -0.000453|
|         243|   -8.794503|   -8.491384|   -0.059049|   -0.000453|
|         244|   -8.799215|   -8.497171|   -0.059058|   -0.000453|
|         245|   -8.803960|   -8.503132|   -0.059067|   -0.000453|
|         246|   -8.808720|   -8.509207|   -0.059076|   -0.000453|
|         247|   -8.813478|   -8.515338|   -0.059085|   -0.000452|
|         248|   -8.818219|   -8.521476|   -0.059094|   -0.000452|
|         249|   -8.822932|   -8.527583|   -0.059102|   -0.000452|
|         250|   -8.827609|   -8.533633|   -0.059111|   -0.000452|
+-----------------------------------------------------------------------+
|        File Writing Summary       |              Filename             |
+-----------------------------------------------------------------------+
|SU2 restart                        |restart_flow.dat                   |
|Paraview                           |flow.vtu                           |
|Paraview surface                   |surface_flow.vtu                   |
|CSV file                           |surface_flow.csv                   |
+-----------------------------------------------------------------------+
+----------------------------------------------------------------+
|  Inner_Iter|    rms[Rho]|   rms[RhoE]|          CL|          CD|
+----------------------------------------------------------------+
|         251|   -8.832247|   -8.539618|   -0.059119|   -0.000452|
|         252|   -8.836847|   -8.545540|   -0.059127|   -0.000452|
|         253|   -8.841410|   -8.551410|   -0.059135|   -0.000452|
|         254|   -8.845941|   -8.557240|   -0.059143|   -0.000452|
|         255|   -8.850441|   -8.563044|   -0.059151|   -0.000452|
|         256|   -8.854913|   -8.568829|   -0.059159|   -0.000452|
|         257|   -8.859357|   -8.574596|   -0.059167|   -0.000452|
|         258|   -8.863770|   -8.580338|   -0.059174|   -0.000452|
|         259|   -8.868151|   -8.586039|   -0.059182|   -0.000452|
|         260|   -8.872493|   -8.591682|   -0.059189|   -0.000452|
|         261|   -8.876793|   -8.597244|   -0.059197|   -0.000452|
|         262|   -8.881047|   -8.602706|   -0.059204|   -0.000452|
|         263|   -8.885252|   -8.608052|   -0.059211|   -0.000452|
|         264|   -8.889409|   -8.613275|   -0.059218|   -0.000452|
|         265|   -8.893521|   -8.618378|   -0.059226|   -0.000452|
|         266|   -8.897591|   -8.623373|   -0.059233|   -0.000452|
|         267|   -8.901629|   -8.628283|   -0.059239|   -0.000452|
|         268|   -8.905645|   -8.633138|   -0.059246|   -0.000452|
|         269|   -8.909648|   -8.637973|   -0.059253|   -0.000452|
|         270|   -8.913652|   -8.642827|   -0.059260|   -0.000452|
|         271|   -8.917666|   -8.647736|   -0.059266|   -0.000452|
|         272|   -8.921702|   -8.652734|   -0.059272|   -0.000452|
|         273|   -8.925769|   -8.657845|   -0.059279|   -0.000452|
|         274|   -8.929871|   -8.663089|   -0.059285|   -0.000452|
|         275|   -8.934014|   -8.668474|   -0.059291|   -0.000451|
|         276|   -8.938199|   -8.674003|   -0.059297|   -0.000451|
|         277|   -8.942425|   -8.679668|   -0.059303|   -0.000451|
|         278|   -8.946690|   -8.685456|   -0.059309|   -0.000451|
|         279|   -8.950992|   -8.691351|   -0.059315|   -0.000451|
|         280|   -8.955324|   -8.697331|   -0.059321|   -0.000451|
|         281|   -8.959683|   -8.703378|   -0.059326|   -0.000451|
|         282|   -8.964064|   -8.709471|   -0.059332|   -0.000451|
|         283|   -8.968464|   -8.715594|   -0.059337|   -0.000451|
|         284|   -8.972878|   -8.721733|   -0.059343|   -0.000451|
|         285|   -8.977304|   -8.727877|   -0.059348|   -0.000451|
|         286|   -8.981739|   -8.734018|   -0.059353|   -0.000451|
|         287|   -8.986182|   -8.740150|   -0.059358|   -0.000451|
|         288|   -8.990631|   -8.746269|   -0.059364|   -0.000451|
|         289|   -8.995086|   -8.752371|   -0.059369|   -0.000451|
|         290|   -8.999545|   -8.758453|   -0.059374|   -0.000451|
|         291|   -9.004008|   -8.764513|   -0.059379|   -0.000451|
|         292|   -9.008474|   -8.770547|   -0.059383|   -0.000451|
|         293|   -9.012943|   -8.776552|   -0.059388|   -0.000451|
|         294|   -9.017414|   -8.782527|   -0.059393|   -0.000451|
|         295|   -9.021888|   -8.788470|   -0.059398|   -0.000451|
|         296|   -9.026365|   -8.794381|   -0.059402|   -0.000451|
|         297|   -9.030847|   -8.800263|   -0.059407|   -0.000451|
|         298|   -9.035336|   -8.806120|   -0.059411|   -0.000450|
|         299|   -9.039833|   -8.811961|   -0.059416|   -0.000450|
|         300|   -9.044343|   -8.817794|   -0.059420|   -0.000450|
|         301|   -9.048868|   -8.823631|   -0.059424|   -0.000450|
|         302|   -9.053413|   -8.829485|   -0.059428|   -0.000450|
|         303|   -9.057981|   -8.835368|   -0.059433|   -0.000450|
|         304|   -9.062576|   -8.841294|   -0.059437|   -0.000450|
|         305|   -9.067201|   -8.847274|   -0.059441|   -0.000450|
|         306|   -9.071861|   -8.853318|   -0.059445|   -0.000450|
|         307|   -9.076557|   -8.859433|   -0.059449|   -0.000450|
|         308|   -9.081291|   -8.865623|   -0.059453|   -0.000450|
|         309|   -9.086064|   -8.871890|   -0.059456|   -0.000450|
|         310|   -9.090878|   -8.878234|   -0.059460|   -0.000450|
|         311|   -9.095731|   -8.884651|   -0.059464|   -0.000450|
|         312|   -9.100624|   -8.891136|   -0.059468|   -0.000450|
|         313|   -9.105555|   -8.897682|   -0.059471|   -0.000450|
|         314|   -9.110523|   -8.904281|   -0.059475|   -0.000450|
|         315|   -9.115526|   -8.910926|   -0.059478|   -0.000450|
|         316|   -9.120563|   -8.917609|   -0.059482|   -0.000450|
|         317|   -9.125632|   -8.924322|   -0.059485|   -0.000450|
|         318|   -9.130731|   -8.931057|   -0.059488|   -0.000450|
|         319|   -9.135859|   -8.937810|   -0.059492|   -0.000450|
|         320|   -9.141014|   -8.944575|   -0.059495|   -0.000450|
|         321|   -9.146195|   -8.951346|   -0.059498|   -0.000450|
|         322|   -9.151400|   -8.958120|   -0.059501|   -0.000449|
|         323|   -9.156629|   -8.964894|   -0.059505|   -0.000449|
|         324|   -9.161881|   -8.971666|   -0.059508|   -0.000449|
|         325|   -9.167155|   -8.978432|   -0.059511|   -0.000449|
|         326|   -9.172451|   -8.985193|   -0.059514|   -0.000449|
|         327|   -9.177768|   -8.991947|   -0.059517|   -0.000449|
|         328|   -9.183107|   -8.998696|   -0.059520|   -0.000449|
|         329|   -9.188468|   -9.005440|   -0.059523|   -0.000449|
|         330|   -9.193852|   -9.012184|   -0.059525|   -0.000449|
|         331|   -9.199260|   -9.018929|   -0.059528|   -0.000449|
|         332|   -9.204692|   -9.025681|   -0.059531|   -0.000449|
|         333|   -9.210151|   -9.032445|   -0.059534|   -0.000449|
|         334|   -9.215638|   -9.039226|   -0.059536|   -0.000449|
|         335|   -9.221155|   -9.046032|   -0.059539|   -0.000449|
|         336|   -9.226704|   -9.052868|   -0.059542|   -0.000449|
|         337|   -9.232286|   -9.059739|   -0.059544|   -0.000449|
|         338|   -9.237902|   -9.066652|   -0.059547|   -0.000449|
|         339|   -9.243556|   -9.073611|   -0.059549|   -0.000449|
|         340|   -9.249246|   -9.080617|   -0.059552|   -0.000449|
|         341|   -9.254976|   -9.087675|   -0.059554|   -0.000449|
|         342|   -9.260744|   -9.094784|   -0.059556|   -0.000449|
|         343|   -9.266553|   -9.101943|   -0.059559|   -0.000449|
|         344|   -9.272401|   -9.109152|   -0.059561|   -0.000449|
|         345|   -9.278289|   -9.116407|   -0.059563|   -0.000449|
|         346|   -9.284216|   -9.123704|   -0.059566|   -0.000449|
|         347|   -9.290182|   -9.131041|   -0.059568|   -0.000449|
|         348|   -9.296186|   -9.138411|   -0.059570|   -0.000449|
|         349|   -9.302227|   -9.145812|   -0.059572|   -0.000449|
|         350|   -9.308303|   -9.153237|   -0.059574|   -0.000449|
|         351|   -9.314415|   -9.160683|   -0.059576|   -0.000449|
|         352|   -9.320561|   -9.168146|   -0.059578|   -0.000449|
|         353|   -9.326740|   -9.175622|   -0.059580|   -0.000449|
|         354|   -9.332952|   -9.183108|   -0.059582|   -0.000448|
|         355|   -9.339194|   -9.190601|   -0.059584|   -0.000448|
|         356|   -9.345467|   -9.198099|   -0.059586|   -0.000448|
|         357|   -9.351770|   -9.205601|   -0.059588|   -0.000448|
|         358|   -9.358101|   -9.213104|   -0.059590|   -0.000448|
|         359|   -9.364462|   -9.220610|   -0.059592|   -0.000448|
|         360|   -9.370851|   -9.228118|   -0.059594|   -0.000448|
|         361|   -9.377268|   -9.235628|   -0.059596|   -0.000448|
|         362|   -9.383714|   -9.243142|   -0.059598|   -0.000448|
|         363|   -9.390189|   -9.250663|   -0.059599|   -0.000448|
|         364|   -9.396692|   -9.258192|   -0.059601|   -0.000448|
|         365|   -9.403226|   -9.265732|   -0.059603|   -0.000448|
|         366|   -9.409789|   -9.273287|   -0.059604|   -0.000448|
|         367|   -9.416383|   -9.280861|   -0.059606|   -0.000448|
|         368|   -9.423009|   -9.288455|   -0.059608|   -0.000448|
|         369|   -9.429668|   -9.296075|   -0.059609|   -0.000448|
|         370|   -9.436360|   -9.303723|   -0.059611|   -0.000448|
|         371|   -9.443086|   -9.311403|   -0.059613|   -0.000448|
|         372|   -9.449847|   -9.319115|   -0.059614|   -0.000448|
|         373|   -9.456644|   -9.326864|   -0.059616|   -0.000448|
|         374|   -9.463477|   -9.334648|   -0.059617|   -0.000448|
|         375|   -9.470347|   -9.342470|   -0.059619|   -0.000448|
|         376|   -9.477254|   -9.350328|   -0.059620|   -0.000448|
|         377|   -9.484197|   -9.358222|   -0.059621|   -0.000448|
|         378|   -9.491178|   -9.366149|   -0.059623|   -0.000448|
|         379|   -9.498195|   -9.374109|   -0.059624|   -0.000448|
|         380|   -9.505249|   -9.382098|   -0.059626|   -0.000448|
|         381|   -9.512339|   -9.390113|   -0.059627|   -0.000448|
|         382|   -9.519465|   -9.398152|   -0.059628|   -0.000448|
|         383|   -9.526626|   -9.406211|   -0.059630|   -0.000448|
|         384|   -9.533820|   -9.414287|   -0.059631|   -0.000448|
|         385|   -9.541049|   -9.422378|   -0.059632|   -0.000448|
|         386|   -9.548311|   -9.430480|   -0.059634|   -0.000448|
|         387|   -9.555605|   -9.438591|   -0.059635|   -0.000448|
|         388|   -9.562931|   -9.446709|   -0.059636|   -0.000448|
|         389|   -9.570288|   -9.454832|   -0.059637|   -0.000448|
|         390|   -9.577675|   -9.462959|   -0.059638|   -0.000448|
|         391|   -9.585093|   -9.471089|   -0.059640|   -0.000448|
|         392|   -9.592541|   -9.479222|   -0.059641|   -0.000448|
|         393|   -9.600018|   -9.487358|   -0.059642|   -0.000448|
|         394|   -9.607524|   -9.495497|   -0.059643|   -0.000448|
|         395|   -9.615060|   -9.503640|   -0.059644|   -0.000448|
|         396|   -9.622625|   -9.511788|   -0.059645|   -0.000448|
|         397|   -9.630220|   -9.519944|   -0.059646|   -0.000448|
|         398|   -9.637844|   -9.528108|   -0.059647|   -0.000448|
|         399|   -9.645499|   -9.536282|   -0.059648|   -0.000448|
|         400|   -9.653183|   -9.544470|   -0.059649|   -0.000448|
|         401|   -9.660898|   -9.552672|   -0.059650|   -0.000448|
|         402|   -9.668645|   -9.560892|   -0.059651|   -0.000448|
|         403|   -9.676423|   -9.569130|   -0.059652|   -0.000448|
|         404|   -9.684232|   -9.577388|   -0.059653|   -0.000448|
|         405|   -9.692075|   -9.585668|   -0.059654|   -0.000448|
|         406|   -9.699950|   -9.593971|   -0.059655|   -0.000448|
|         407|   -9.707858|   -9.602296|   -0.059656|   -0.000448|
|         408|   -9.715799|   -9.610645|   -0.059657|   -0.000448|
|         409|   -9.723773|   -9.619018|   -0.059658|   -0.000448|
|         410|   -9.731781|   -9.627412|   -0.059659|   -0.000448|
|         411|   -9.739823|   -9.635828|   -0.059660|   -0.000448|
|         412|   -9.747897|   -9.644264|   -0.059661|   -0.000448|
|         413|   -9.756005|   -9.652718|   -0.059662|   -0.000448|
|         414|   -9.764146|   -9.661189|   -0.059662|   -0.000448|
|         415|   -9.772319|   -9.669674|   -0.059663|   -0.000448|
|         416|   -9.780525|   -9.678172|   -0.059664|   -0.000448|
|         417|   -9.788763|   -9.686679|   -0.059665|   -0.000448|
|         418|   -9.797031|   -9.695196|   -0.059666|   -0.000448|
|         419|   -9.805331|   -9.703718|   -0.059666|   -0.000448|
|         420|   -9.813662|   -9.712245|   -0.059667|   -0.000448|
|         421|   -9.822022|   -9.720776|   -0.059668|   -0.000448|
|         422|   -9.830412|   -9.729308|   -0.059669|   -0.000448|
|         423|   -9.838831|   -9.737840|   -0.059669|   -0.000448|
|         424|   -9.847279|   -9.746373|   -0.059670|   -0.000448|
|         425|   -9.855756|   -9.754905|   -0.059671|   -0.000448|
|         426|   -9.864261|   -9.763437|   -0.059672|   -0.000447|
|         427|   -9.872794|   -9.771968|   -0.059672|   -0.000447|
|         428|   -9.881356|   -9.780499|   -0.059673|   -0.000447|
|         429|   -9.889945|   -9.789031|   -0.059674|   -0.000447|
|         430|   -9.898562|   -9.797564|   -0.059674|   -0.000447|
|         431|   -9.907207|   -9.806100|   -0.059675|   -0.000447|
|         432|   -9.915881|   -9.814639|   -0.059676|   -0.000447|
|         433|   -9.924582|   -9.823182|   -0.059676|   -0.000447|
|         434|   -9.933313|   -9.831731|   -0.059677|   -0.000447|
|         435|   -9.942071|   -9.840286|   -0.059678|   -0.000447|
|         436|   -9.950858|   -9.848848|   -0.059678|   -0.000447|
|         437|   -9.959675|   -9.857418|   -0.059679|   -0.000447|
|         438|   -9.968520|   -9.865996|   -0.059679|   -0.000447|
|         439|   -9.977395|   -9.874583|   -0.059680|   -0.000447|
|         440|   -9.986298|   -9.883179|   -0.059681|   -0.000447|
|         441|   -9.995232|   -9.891783|   -0.059681|   -0.000447|
|         442|  -10.004194|   -9.900395|   -0.059682|   -0.000447|
|         443|  -10.013186|   -9.909015|   -0.059682|   -0.000447|
|         444|  -10.022207|   -9.917640|   -0.059683|   -0.000447|
|         445|  -10.031258|   -9.926271|   -0.059683|   -0.000447|
|         446|  -10.040337|   -9.934907|   -0.059684|   -0.000447|
|         447|  -10.049446|   -9.943545|   -0.059684|   -0.000447|
|         448|  -10.058582|   -9.952184|   -0.059685|   -0.000447|
|         449|  -10.067747|   -9.960824|   -0.059686|   -0.000447|
|         450|  -10.076940|   -9.969462|   -0.059686|   -0.000447|
|         451|  -10.086161|   -9.978098|   -0.059687|   -0.000447|
|         452|  -10.095408|   -9.986729|   -0.059687|   -0.000447|
|         453|  -10.104683|   -9.995356|   -0.059687|   -0.000447|
|         454|  -10.113984|  -10.003977|   -0.059688|   -0.000447|
|         455|  -10.123312|  -10.012591|   -0.059688|   -0.000447|
|         456|  -10.132665|  -10.021198|   -0.059689|   -0.000447|
|         457|  -10.142044|  -10.029797|   -0.059689|   -0.000447|
|         458|  -10.151449|  -10.038387|   -0.059690|   -0.000447|
|         459|  -10.160878|  -10.046969|   -0.059690|   -0.000447|
|         460|  -10.170332|  -10.055543|   -0.059691|   -0.000447|
|         461|  -10.179812|  -10.064108|   -0.059691|   -0.000447|
|         462|  -10.189315|  -10.072665|   -0.059692|   -0.000447|
|         463|  -10.198843|  -10.081213|   -0.059692|   -0.000447|
|         464|  -10.208396|  -10.089755|   -0.059692|   -0.000447|
|         465|  -10.217973|  -10.098289|   -0.059693|   -0.000447|
|         466|  -10.227573|  -10.106816|   -0.059693|   -0.000447|
|         467|  -10.237199|  -10.115337|   -0.059694|   -0.000447|
|         468|  -10.246848|  -10.123850|   -0.059694|   -0.000447|
|         469|  -10.256521|  -10.132358|   -0.059694|   -0.000447|
|         470|  -10.266218|  -10.140859|   -0.059695|   -0.000447|
|         471|  -10.275939|  -10.149353|   -0.059695|   -0.000447|
|         472|  -10.285684|  -10.157840|   -0.059696|   -0.000447|
|         473|  -10.295453|  -10.166320|   -0.059696|   -0.000447|
|         474|  -10.305245|  -10.174793|   -0.059696|   -0.000447|
|         475|  -10.315061|  -10.183257|   -0.059697|   -0.000447|
|         476|  -10.324899|  -10.191711|   -0.059697|   -0.000447|
|         477|  -10.334761|  -10.200156|   -0.059697|   -0.000447|
|         478|  -10.344645|  -10.208589|   -0.059698|   -0.000447|
|         479|  -10.354551|  -10.217011|   -0.059698|   -0.000447|
|         480|  -10.364480|  -10.225420|   -0.059698|   -0.000447|
|         481|  -10.374430|  -10.233816|   -0.059699|   -0.000447|
|         482|  -10.384401|  -10.242198|   -0.059699|   -0.000447|
|         483|  -10.394393|  -10.250563|   -0.059699|   -0.000447|
|         484|  -10.404406|  -10.258914|   -0.059700|   -0.000447|
|         485|  -10.414439|  -10.267247|   -0.059700|   -0.000447|
|         486|  -10.424492|  -10.275564|   -0.059700|   -0.000447|
|         487|  -10.434564|  -10.283863|   -0.059701|   -0.000447|
|         488|  -10.444655|  -10.292144|   -0.059701|   -0.000447|
|         489|  -10.454765|  -10.300406|   -0.059701|   -0.000447|
|         490|  -10.464893|  -10.308650|   -0.059701|   -0.000447|
|         491|  -10.475039|  -10.316876|   -0.059702|   -0.000447|
|         492|  -10.485202|  -10.325083|   -0.059702|   -0.000447|
|         493|  -10.495382|  -10.333271|   -0.059702|   -0.000447|
|         494|  -10.505580|  -10.341441|   -0.059703|   -0.000447|
|         495|  -10.515793|  -10.349593|   -0.059703|   -0.000447|
|         496|  -10.526023|  -10.357726|   -0.059703|   -0.000447|
|         497|  -10.536269|  -10.365840|   -0.059703|   -0.000447|
|         498|  -10.546530|  -10.373936|   -0.059704|   -0.000447|
|         499|  -10.556806|  -10.382014|   -0.059704|   -0.000447|
|         500|  -10.567097|  -10.390073|   -0.059704|   -0.000447|
+-----------------------------------------------------------------------+
|        File Writing Summary       |              Filename             |
+-----------------------------------------------------------------------+
|SU2 restart                        |restart_flow.dat                   |
|Paraview                           |flow.vtu                           |
|Paraview surface                   |surface_flow.vtu                   |
|CSV file                           |surface_flow.csv                   |
+-----------------------------------------------------------------------+
+----------------------------------------------------------------+
|  Inner_Iter|    rms[Rho]|   rms[RhoE]|          CL|          CD|
+----------------------------------------------------------------+
|         501|  -10.577402|  -10.398114|   -0.059704|   -0.000447|
|         502|  -10.587721|  -10.406136|   -0.059705|   -0.000447|
|         503|  -10.598053|  -10.414138|   -0.059705|   -0.000447|
|         504|  -10.608399|  -10.422121|   -0.059705|   -0.000447|
|         505|  -10.618757|  -10.430085|   -0.059705|   -0.000447|
|         506|  -10.629128|  -10.438028|   -0.059706|   -0.000447|
|         507|  -10.639510|  -10.445950|   -0.059706|   -0.000447|
|         508|  -10.649903|  -10.453851|   -0.059706|   -0.000447|
|         509|  -10.660307|  -10.461732|   -0.059706|   -0.000447|
|         510|  -10.670721|  -10.469589|   -0.059706|   -0.000447|
|         511|  -10.681144|  -10.477424|   -0.059707|   -0.000447|
|         512|  -10.691577|  -10.485236|   -0.059707|   -0.000447|
|         513|  -10.702017|  -10.493026|   -0.059707|   -0.000447|
|         514|  -10.712466|  -10.500791|   -0.059707|   -0.000447|
|         515|  -10.722921|  -10.508533|   -0.059708|   -0.000447|
|         516|  -10.733383|  -10.516251|   -0.059708|   -0.000447|
|         517|  -10.743851|  -10.523945|   -0.059708|   -0.000447|
|         518|  -10.754323|  -10.531615|   -0.059708|   -0.000447|
|         519|  -10.764801|  -10.539261|   -0.059708|   -0.000447|
|         520|  -10.775282|  -10.546883|   -0.059709|   -0.000447|
|         521|  -10.785767|  -10.554480|   -0.059709|   -0.000447|
|         522|  -10.796255|  -10.562055|   -0.059709|   -0.000447|
|         523|  -10.806744|  -10.569605|   -0.059709|   -0.000447|
|         524|  -10.817235|  -10.577133|   -0.059709|   -0.000447|
|         525|  -10.827727|  -10.584636|   -0.059709|   -0.000447|
|         526|  -10.838219|  -10.592118|   -0.059710|   -0.000447|
|         527|  -10.848710|  -10.599576|   -0.059710|   -0.000447|
|         528|  -10.859200|  -10.607012|   -0.059710|   -0.000447|
|         529|  -10.869688|  -10.614425|   -0.059710|   -0.000447|
|         530|  -10.880173|  -10.621816|   -0.059710|   -0.000447|
|         531|  -10.890654|  -10.629185|   -0.059711|   -0.000447|
|         532|  -10.901132|  -10.636530|   -0.059711|   -0.000447|
|         533|  -10.911604|  -10.643855|   -0.059711|   -0.000447|
|         534|  -10.922071|  -10.651157|   -0.059711|   -0.000447|
|         535|  -10.932531|  -10.658437|   -0.059711|   -0.000447|
|         536|  -10.942983|  -10.665693|   -0.059711|   -0.000447|
|         537|  -10.953427|  -10.672929|   -0.059711|   -0.000447|
|         538|  -10.963862|  -10.680140|   -0.059712|   -0.000447|
|         539|  -10.974287|  -10.687330|   -0.059712|   -0.000447|
|         540|  -10.984701|  -10.694497|   -0.059712|   -0.000447|
|         541|  -10.995103|  -10.701642|   -0.059712|   -0.000447|
|         542|  -11.005492|  -10.708763|   -0.059712|   -0.000447|
|         543|  -11.015867|  -10.715863|   -0.059712|   -0.000447|
|         544|  -11.026228|  -10.722938|   -0.059712|   -0.000447|
|         545|  -11.036573|  -10.729992|   -0.059713|   -0.000447|
|         546|  -11.046903|  -10.737024|   -0.059713|   -0.000447|
|         547|  -11.057215|  -10.744034|   -0.059713|   -0.000447|
|         548|  -11.067509|  -10.751022|   -0.059713|   -0.000447|
|         549|  -11.077784|  -10.757988|   -0.059713|   -0.000447|
|         550|  -11.088040|  -10.764934|   -0.059713|   -0.000447|
|         551|  -11.098275|  -10.771859|   -0.059713|   -0.000447|
|         552|  -11.108489|  -10.778764|   -0.059714|   -0.000447|
|         553|  -11.118681|  -10.785648|   -0.059714|   -0.000447|
|         554|  -11.128849|  -10.792513|   -0.059714|   -0.000447|
|         555|  -11.138995|  -10.799359|   -0.059714|   -0.000447|
|         556|  -11.149116|  -10.806186|   -0.059714|   -0.000447|
|         557|  -11.159211|  -10.812994|   -0.059714|   -0.000447|
|         558|  -11.169281|  -10.819785|   -0.059714|   -0.000447|
|         559|  -11.179323|  -10.826558|   -0.059714|   -0.000447|
|         560|  -11.189338|  -10.833313|   -0.059714|   -0.000447|
|         561|  -11.199324|  -10.840051|   -0.059715|   -0.000447|
|         562|  -11.209280|  -10.846771|   -0.059715|   -0.000447|
|         563|  -11.219207|  -10.853474|   -0.059715|   -0.000447|
|         564|  -11.229102|  -10.860161|   -0.059715|   -0.000447|
|         565|  -11.238965|  -10.866830|   -0.059715|   -0.000447|
|         566|  -11.248795|  -10.873483|   -0.059715|   -0.000447|
|         567|  -11.258591|  -10.880120|   -0.059715|   -0.000447|
|         568|  -11.268352|  -10.886740|   -0.059715|   -0.000447|
|         569|  -11.278079|  -10.893344|   -0.059715|   -0.000447|
|         570|  -11.287768|  -10.899931|   -0.059716|   -0.000447|
|         571|  -11.297420|  -10.906502|   -0.059716|   -0.000447|
|         572|  -11.307035|  -10.913057|   -0.059716|   -0.000447|
|         573|  -11.316611|  -10.919596|   -0.059716|   -0.000447|
|         574|  -11.326148|  -10.926120|   -0.059716|   -0.000447|
|         575|  -11.335645|  -10.932629|   -0.059716|   -0.000447|
|         576|  -11.345101|  -10.939122|   -0.059716|   -0.000447|
|         577|  -11.354517|  -10.945601|   -0.059716|   -0.000447|
|         578|  -11.363891|  -10.952065|   -0.059716|   -0.000447|
|         579|  -11.373222|  -10.958516|   -0.059716|   -0.000447|
|         580|  -11.382513|  -10.964954|   -0.059716|   -0.000447|
|         581|  -11.391759|  -10.971376|   -0.059717|   -0.000447|
|         582|  -11.400963|  -10.977787|   -0.059717|   -0.000447|
|         583|  -11.410123|  -10.984185|   -0.059717|   -0.000447|
|         584|  -11.419241|  -10.990572|   -0.059717|   -0.000447|
|         585|  -11.428314|  -10.996947|   -0.059717|   -0.000447|
|         586|  -11.437343|  -11.003310|   -0.059717|   -0.000447|
|         587|  -11.446328|  -11.009665|   -0.059717|   -0.000447|
|         588|  -11.455268|  -11.016006|   -0.059717|   -0.000447|
|         589|  -11.464163|  -11.022337|   -0.059717|   -0.000447|
|         590|  -11.473015|  -11.028660|   -0.059717|   -0.000447|
|         591|  -11.481821|  -11.034973|   -0.059717|   -0.000447|
|         592|  -11.490580|  -11.041273|   -0.059717|   -0.000447|
|         593|  -11.499296|  -11.047568|   -0.059717|   -0.000447|
|         594|  -11.507965|  -11.053851|   -0.059718|   -0.000447|
|         595|  -11.516590|  -11.060127|   -0.059718|   -0.000447|
|         596|  -11.525168|  -11.066392|   -0.059718|   -0.000447|
|         597|  -11.533700|  -11.072648|   -0.059718|   -0.000447|
|         598|  -11.542186|  -11.078895|   -0.059718|   -0.000447|
|         599|  -11.550627|  -11.085135|   -0.059718|   -0.000447|
|         600|  -11.559021|  -11.091365|   -0.059718|   -0.000447|
|         601|  -11.567368|  -11.097585|   -0.059718|   -0.000447|
|         602|  -11.575671|  -11.103798|   -0.059718|   -0.000447|
|         603|  -11.583927|  -11.110001|   -0.059718|   -0.000447|
|         604|  -11.592137|  -11.116197|   -0.059718|   -0.000447|
|         605|  -11.600302|  -11.122383|   -0.059718|   -0.000447|
|         606|  -11.608420|  -11.128560|   -0.059718|   -0.000447|
|         607|  -11.616494|  -11.134732|   -0.059718|   -0.000447|
|         608|  -11.624523|  -11.140895|   -0.059718|   -0.000447|
|         609|  -11.632510|  -11.147052|   -0.059718|   -0.000447|
|         610|  -11.640452|  -11.153202|   -0.059719|   -0.000447|
|         611|  -11.648349|  -11.159342|   -0.059719|   -0.000447|
|         612|  -11.656203|  -11.165477|   -0.059719|   -0.000447|
|         613|  -11.664017|  -11.171608|   -0.059719|   -0.000447|
|         614|  -11.671787|  -11.177731|   -0.059719|   -0.000447|
|         615|  -11.679519|  -11.183850|   -0.059719|   -0.000447|
|         616|  -11.687208|  -11.189962|   -0.059719|   -0.000447|
|         617|  -11.694860|  -11.196071|   -0.059719|   -0.000447|
|         618|  -11.702470|  -11.202175|   -0.059719|   -0.000447|
|         619|  -11.710042|  -11.208274|   -0.059719|   -0.000447|
|         620|  -11.717575|  -11.214366|   -0.059719|   -0.000447|
|         621|  -11.725071|  -11.220457|   -0.059719|   -0.000447|
|         622|  -11.732530|  -11.226542|   -0.059719|   -0.000447|
|         623|  -11.739955|  -11.232627|   -0.059719|   -0.000447|
|         624|  -11.747342|  -11.238705|   -0.059719|   -0.000447|
|         625|  -11.754694|  -11.244780|   -0.059719|   -0.000447|
|         626|  -11.762010|  -11.250850|   -0.059719|   -0.000447|
|         627|  -11.769293|  -11.256919|   -0.059719|   -0.000447|
|         628|  -11.776542|  -11.262982|   -0.059719|   -0.000447|
|         629|  -11.783758|  -11.269043|   -0.059720|   -0.000447|
|         630|  -11.790940|  -11.275100|   -0.059720|   -0.000447|
|         631|  -11.798092|  -11.281156|   -0.059720|   -0.000447|
|         632|  -11.805207|  -11.287202|   -0.059720|   -0.000447|
|         633|  -11.812296|  -11.293250|   -0.059720|   -0.000447|
|         634|  -11.819353|  -11.299294|   -0.059720|   -0.000447|
|         635|  -11.826378|  -11.305332|   -0.059720|   -0.000447|
|         636|  -11.833374|  -11.311367|   -0.059720|   -0.000447|
|         637|  -11.840341|  -11.317398|   -0.059720|   -0.000447|
|         638|  -11.847279|  -11.323428|   -0.059720|   -0.000447|
|         639|  -11.854191|  -11.329456|   -0.059720|   -0.000447|
|         640|  -11.861075|  -11.335479|   -0.059720|   -0.000447|
|         641|  -11.867932|  -11.341500|   -0.059720|   -0.000447|
|         642|  -11.874763|  -11.347518|   -0.059720|   -0.000447|
|         643|  -11.881571|  -11.353535|   -0.059720|   -0.000447|
|         644|  -11.888355|  -11.359551|   -0.059720|   -0.000447|
|         645|  -11.895115|  -11.365563|   -0.059720|   -0.000447|
|         646|  -11.901848|  -11.371570|   -0.059720|   -0.000447|
|         647|  -11.908560|  -11.377579|   -0.059720|   -0.000447|
|         648|  -11.915254|  -11.383587|   -0.059720|   -0.000447|
|         649|  -11.921924|  -11.389592|   -0.059720|   -0.000447|
|         650|  -11.928576|  -11.395598|   -0.059720|   -0.000447|
|         651|  -11.935201|  -11.401597|   -0.059720|   -0.000447|
|         652|  -11.941816|  -11.407602|   -0.059720|   -0.000447|
|         653|  -11.948408|  -11.413604|   -0.059720|   -0.000447|
|         654|  -11.954981|  -11.419603|   -0.059720|   -0.000447|
|         655|  -11.961541|  -11.425607|   -0.059720|   -0.000447|
|         656|  -11.968082|  -11.431606|   -0.059721|   -0.000447|
|         657|  -11.974601|  -11.437603|   -0.059721|   -0.000447|
|         658|  -11.981107|  -11.443599|   -0.059721|   -0.000447|
|         659|  -11.987599|  -11.449598|   -0.059721|   -0.000447|
|         660|  -11.994074|  -11.455595|   -0.059721|   -0.000447|
|         661|  -12.000537|  -11.461595|   -0.059721|   -0.000447|
|         662|  -12.006982|  -11.467590|   -0.059721|   -0.000447|
|         663|  -12.013414|  -11.473585|   -0.059721|   -0.000447|
|         664|  -12.019827|  -11.479576|   -0.059721|   -0.000447|
|         665|  -12.026231|  -11.485570|   -0.059721|   -0.000447|
|         666|  -12.032621|  -11.491563|   -0.059721|   -0.000447|
|         667|  -12.039001|  -11.497558|   -0.059721|   -0.000447|
|         668|  -12.045364|  -11.503549|   -0.059721|   -0.000447|
|         669|  -12.051714|  -11.509536|   -0.059721|   -0.000447|
|         670|  -12.058055|  -11.515527|   -0.059721|   -0.000447|
|         671|  -12.064386|  -11.521520|   -0.059721|   -0.000447|
|         672|  -12.070703|  -11.527510|   -0.059721|   -0.000447|
|         673|  -12.077012|  -11.533499|   -0.059721|   -0.000447|
|         674|  -12.083307|  -11.539485|   -0.059721|   -0.000447|
|         675|  -12.089593|  -11.545473|   -0.059721|   -0.000447|
|         676|  -12.095873|  -11.551462|   -0.059721|   -0.000447|
|         677|  -12.102143|  -11.557454|   -0.059721|   -0.000447|
|         678|  -12.108405|  -11.563444|   -0.059721|   -0.000447|
|         679|  -12.114656|  -11.569432|   -0.059721|   -0.000447|
|         680|  -12.120896|  -11.575417|   -0.059721|   -0.000447|
|         681|  -12.127134|  -11.581407|   -0.059721|   -0.000447|
|         682|  -12.133364|  -11.587400|   -0.059721|   -0.000447|
|         683|  -12.139584|  -11.593389|   -0.059721|   -0.000447|
|         684|  -12.145802|  -11.599382|   -0.059721|   -0.000447|
|         685|  -12.152011|  -11.605374|   -0.059721|   -0.000447|
|         686|  -12.158218|  -11.611371|   -0.059721|   -0.000447|
|         687|  -12.164409|  -11.617359|   -0.059721|   -0.000447|
|         688|  -12.170604|  -11.623356|   -0.059721|   -0.000447|
|         689|  -12.176789|  -11.629351|   -0.059721|   -0.000447|
|         690|  -12.182965|  -11.635341|   -0.059721|   -0.000447|
|         691|  -12.189142|  -11.641338|   -0.059721|   -0.000447|
|         692|  -12.195312|  -11.647336|   -0.059721|   -0.000447|
|         693|  -12.201483|  -11.653340|   -0.059721|   -0.000447|
|         694|  -12.207637|  -11.659328|   -0.059721|   -0.000447|
|         695|  -12.213793|  -11.665328|   -0.059721|   -0.000447|
|         696|  -12.219947|  -11.671329|   -0.059721|   -0.000447|
|         697|  -12.226097|  -11.677330|   -0.059721|   -0.000447|
|         698|  -12.232237|  -11.683327|   -0.059721|   -0.000447|
|         699|  -12.238376|  -11.689330|   -0.059722|   -0.000447|
|         700|  -12.244511|  -11.695330|   -0.059722|   -0.000447|
|         701|  -12.250642|  -11.701331|   -0.059722|   -0.000447|
|         702|  -12.256772|  -11.707334|   -0.059722|   -0.000447|
|         703|  -12.262893|  -11.713335|   -0.059722|   -0.000447|
|         704|  -12.269014|  -11.719339|   -0.059722|   -0.000447|
|         705|  -12.275139|  -11.725349|   -0.059722|   -0.000447|
|         706|  -12.281251|  -11.731351|   -0.059722|   -0.000447|
|         707|  -12.287364|  -11.737357|   -0.059722|   -0.000447|
|         708|  -12.293473|  -11.743361|   -0.059722|   -0.000447|
|         709|  -12.299578|  -11.749367|   -0.059722|   -0.000447|
|         710|  -12.305687|  -11.755378|   -0.059722|   -0.000447|
|         711|  -12.311792|  -11.761390|   -0.059722|   -0.000447|
|         712|  -12.317890|  -11.767396|   -0.059722|   -0.000447|
|         713|  -12.323990|  -11.773407|   -0.059722|   -0.000447|
|         714|  -12.330088|  -11.779420|   -0.059722|   -0.000447|
|         715|  -12.336190|  -11.785439|   -0.059722|   -0.000447|
|         716|  -12.342277|  -11.791446|   -0.059722|   -0.000447|
|         717|  -12.348376|  -11.797467|   -0.059722|   -0.000447|
|         718|  -12.354463|  -11.803478|   -0.059722|   -0.000447|
|         719|  -12.360557|  -11.809498|   -0.059722|   -0.000447|
|         720|  -12.366657|  -11.815528|   -0.059722|   -0.000447|
|         721|  -12.372735|  -11.821535|   -0.059722|   -0.000447|
|         722|  -12.378826|  -11.827561|   -0.059722|   -0.000447|
|         723|  -12.384912|  -11.833581|   -0.059722|   -0.000447|
|         724|  -12.390993|  -11.839601|   -0.059722|   -0.000447|
|         725|  -12.397090|  -11.845637|   -0.059722|   -0.000447|
|         726|  -12.403172|  -11.851659|   -0.059722|   -0.000447|
|         727|  -12.409249|  -11.857677|   -0.059722|   -0.000447|
|         728|  -12.415333|  -11.863708|   -0.059722|   -0.000447|
|         729|  -12.421417|  -11.869736|   -0.059722|   -0.000447|
|         730|  -12.427494|  -11.875762|   -0.059722|   -0.000447|
|         731|  -12.433573|  -11.881790|   -0.059722|   -0.000447|
|         732|  -12.439654|  -11.887820|   -0.059722|   -0.000447|
|         733|  -12.445743|  -11.893864|   -0.059722|   -0.000447|
|         734|  -12.451818|  -11.899890|   -0.059722|   -0.000447|
|         735|  -12.457897|  -11.905925|   -0.059722|   -0.000447|
|         736|  -12.463974|  -11.911959|   -0.059722|   -0.000447|
|         737|  -12.470052|  -11.917996|   -0.059722|   -0.000447|
|         738|  -12.476124|  -11.924025|   -0.059722|   -0.000447|
|         739|  -12.482210|  -11.930072|   -0.059722|   -0.000447|
|         740|  -12.488289|  -11.936112|   -0.059722|   -0.000447|
|         741|  -12.494360|  -11.942147|   -0.059722|   -0.000447|
|         742|  -12.500430|  -11.948180|   -0.059722|   -0.000447|
|         743|  -12.506518|  -11.954231|   -0.059722|   -0.000447|
|         744|  -12.512594|  -11.960275|   -0.059722|   -0.000447|
|         745|  -12.518684|  -11.966328|   -0.059722|   -0.000447|
|         746|  -12.524739|  -11.972352|   -0.059722|   -0.000447|
|         747|  -12.530819|  -11.978401|   -0.059722|   -0.000447|
|         748|  -12.536904|  -11.984456|   -0.059722|   -0.000447|
|         749|  -12.542977|  -11.990498|   -0.059722|   -0.000447|
|         750|  -12.549060|  -11.996553|   -0.059722|   -0.000447|
+-----------------------------------------------------------------------+
|        File Writing Summary       |              Filename             |
+-----------------------------------------------------------------------+
|SU2 restart                        |restart_flow.dat                   |
|Paraview                           |flow.vtu                           |
|Paraview surface                   |surface_flow.vtu                   |
|CSV file                           |surface_flow.csv                   |
+-----------------------------------------------------------------------+
+----------------------------------------------------------------+
|  Inner_Iter|    rms[Rho]|   rms[RhoE]|          CL|          CD|
+----------------------------------------------------------------+
|         751|  -12.555142|  -12.002607|   -0.059722|   -0.000447|
|         752|  -12.561222|  -12.008658|   -0.059722|   -0.000447|
|         753|  -12.567288|  -12.014695|   -0.059722|   -0.000447|
|         754|  -12.573389|  -12.020772|   -0.059722|   -0.000447|
|         755|  -12.579464|  -12.026821|   -0.059722|   -0.000447|
|         756|  -12.585541|  -12.032874|   -0.059722|   -0.000447|
|         757|  -12.591617|  -12.038927|   -0.059722|   -0.000447|
|         758|  -12.597704|  -12.044987|   -0.059722|   -0.000447|
|         759|  -12.603788|  -12.051055|   -0.059722|   -0.000447|
|         760|  -12.609866|  -12.057105|   -0.059722|   -0.000447|
|         761|  -12.615954|  -12.063171|   -0.059722|   -0.000447|
|         762|  -12.622037|  -12.069236|   -0.059722|   -0.000447|
|         763|  -12.628115|  -12.075294|   -0.059722|   -0.000447|
|         764|  -12.634201|  -12.081360|   -0.059722|   -0.000447|
|         765|  -12.640273|  -12.087411|   -0.059722|   -0.000447|
|         766|  -12.646363|  -12.093482|   -0.059722|   -0.000447|
|         767|  -12.652435|  -12.099535|   -0.059722|   -0.000447|
|         768|  -12.658536|  -12.105618|   -0.059722|   -0.000447|
|         769|  -12.664620|  -12.111684|   -0.059722|   -0.000447|
|         770|  -12.670710|  -12.117763|   -0.059722|   -0.000447|
|         771|  -12.676786|  -12.123821|   -0.059722|   -0.000447|
|         772|  -12.682876|  -12.129890|   -0.059722|   -0.000447|
|         773|  -12.688962|  -12.135961|   -0.059722|   -0.000447|
|         774|  -12.695042|  -12.142026|   -0.059722|   -0.000447|
|         775|  -12.701149|  -12.148118|   -0.059722|   -0.000447|
|         776|  -12.707228|  -12.154182|   -0.059722|   -0.000447|
|         777|  -12.713322|  -12.160264|   -0.059722|   -0.000447|
|         778|  -12.719410|  -12.166334|   -0.059722|   -0.000447|
|         779|  -12.725506|  -12.172422|   -0.059722|   -0.000447|
|         780|  -12.731601|  -12.178502|   -0.059722|   -0.000447|
|         781|  -12.737670|  -12.184559|   -0.059722|   -0.000447|
|         782|  -12.743789|  -12.190662|   -0.059722|   -0.000447|
|         783|  -12.749868|  -12.196731|   -0.059722|   -0.000447|
|         784|  -12.755953|  -12.202807|   -0.059722|   -0.000447|
|         785|  -12.762055|  -12.208896|   -0.059722|   -0.000447|
|         786|  -12.768156|  -12.214981|   -0.059722|   -0.000447|
|         787|  -12.774240|  -12.221055|   -0.059722|   -0.000447|
|         788|  -12.780342|  -12.227145|   -0.059722|   -0.000447|
|         789|  -12.786448|  -12.233238|   -0.059722|   -0.000447|
|         790|  -12.792522|  -12.239304|   -0.059722|   -0.000447|
|         791|  -12.798621|  -12.245393|   -0.059722|   -0.000447|
|         792|  -12.804743|  -12.251504|   -0.059722|   -0.000447|
|         793|  -12.810821|  -12.257576|   -0.059722|   -0.000447|
|         794|  -12.816928|  -12.263669|   -0.059722|   -0.000447|
|         795|  -12.823027|  -12.269761|   -0.059722|   -0.000447|
|         796|  -12.829106|  -12.275834|   -0.059722|   -0.000447|
|         797|  -12.835212|  -12.281926|   -0.059722|   -0.000447|
|         798|  -12.841329|  -12.288037|   -0.059722|   -0.000447|
|         799|  -12.847419|  -12.294120|   -0.059722|   -0.000447|
|         800|  -12.853511|  -12.300203|   -0.059722|   -0.000447|
|         801|  -12.859614|  -12.306298|   -0.059722|   -0.000447|
|         802|  -12.865717|  -12.312393|   -0.059722|   -0.000447|
|         803|  -12.871833|  -12.318502|   -0.059722|   -0.000447|
|         804|  -12.877932|  -12.324594|   -0.059722|   -0.000447|
|         805|  -12.884035|  -12.330687|   -0.059722|   -0.000447|
|         806|  -12.890116|  -12.336757|   -0.059722|   -0.000447|
|         807|  -12.896240|  -12.342876|   -0.059722|   -0.000447|
|         808|  -12.902367|  -12.348994|   -0.059722|   -0.000447|
|         809|  -12.908440|  -12.355061|   -0.059722|   -0.000447|
|         810|  -12.914562|  -12.361180|   -0.059722|   -0.000447|
|         811|  -12.920650|  -12.367268|   -0.059722|   -0.000447|
|         812|  -12.926754|  -12.373358|   -0.059722|   -0.000447|
|         813|  -12.932901|  -12.379501|   -0.059722|   -0.000447|
|         814|  -12.938941|  -12.385528|   -0.059722|   -0.000447|
|         815|  -12.945102|  -12.391690|   -0.059722|   -0.000447|
|         816|  -12.951204|  -12.397784|   -0.059722|   -0.000447|
|         817|  -12.957294|  -12.403867|   -0.059722|   -0.000447|
|         818|  -12.963428|  -12.409995|   -0.059722|   -0.000447|
|         819|  -12.969523|  -12.416082|   -0.059722|   -0.000447|
|         820|  -12.975603|  -12.422154|   -0.059723|   -0.000447|
|         821|  -12.981748|  -12.428298|   -0.059723|   -0.000447|
|         822|  -12.987837|  -12.434390|   -0.059723|   -0.000447|
|         823|  -12.993957|  -12.440498|   -0.059723|   -0.000447|
|         824|  -13.000084|  -12.446618|   -0.059723|   -0.000447|

----------------------------- Solver Exit -------------------------------
All convergence criteria satisfied.
+-----------------------------------------------------------------------+
|      Convergence Field     |     Value    |   Criterion  |  Converged |
+-----------------------------------------------------------------------+
|                    rms[Rho]|      -13.0001|         < -13|         Yes|
+-----------------------------------------------------------------------+
-------------------------------------------------------------------------
+-----------------------------------------------------------------------+
|        File Writing Summary       |              Filename             |
+-----------------------------------------------------------------------+
|SU2 restart                        |restart_flow.dat                   |
|Paraview                           |flow.vtu                           |
|Paraview surface                   |surface_flow.vtu                   |
|CSV file                           |surface_flow.csv                   |
+-----------------------------------------------------------------------+

------------------------- Solver Postprocessing -------------------------
Deleted CNumerics container.
Deleted CIntegration container.
Deleted CSolver container.
Deleted CIteration container.
Deleted CInterpolator container.
Deleted CInterface container.
Deleted CGeometry container.
Deleted CFreeFormDefBox class.
Deleted CSurfaceMovement class.
Deleted CVolumetricMovement class.
Deleted CConfig container.
Deleted nInst container.
Deleted COutput class.
-------------------------------------------------------------------------

------------------------- Exit Success (SU2_CFD) ------------------------

