
-------------------------------------------------------------------------
|    ___ _   _ ___                                                      |
|   / __| | | |_  )   Release 7.0.5 "Blackbird"                         |
|   \__ \ |_| |/ /                                                      |
|   |___/\___//___|   Suite (Computational Fluid Dynamics Code)         |
|                                                                       |
-------------------------------------------------------------------------
| SU2 Project Website: https://su2code.github.io                        |
|                                                                       |
| The SU2 Project is maintained by the SU2 Foundation                   |
| (http://su2foundation.org)                                            |
-------------------------------------------------------------------------
| Copyright 2012-2020, SU2 Contributors                                 |
|                                                                       |
| SU2 is free software; you can redistribute it and/or                  |
| modify it under the terms of the GNU Lesser General Public            |
| License as published by the Free Software Foundation; either          |
| version 2.1 of the License, or (at your option) any later version.    |
|                                                                       |
| SU2 is distributed in the hope that it will be useful,                |
| but WITHOUT ANY WARRANTY; without even the implied warranty of        |
| MERCHANTABILITY or FITNESS FOR A PARTICULAR PURPOSE. See the GNU      |
| Lesser General Public License for more details.                       |
|                                                                       |
| You should have received a copy of the GNU Lesser General Public      |
| License along with SU2. If not, see <http://www.gnu.org/licenses/>.   |
-------------------------------------------------------------------------

Parsing config file for zone 0

----------------- Physical Case Definition ( Zone 0 ) -------------------
Continuous Euler adjoint equations.
Mach number: 0.2.
Angle of attack (AoA): 0 deg, and angle of sideslip (AoS): 0 deg.
No restart solution, use the values at infinity (freestream).
Read flow solution from: solution_flow.dat.
Non-Dimensional simulation (P=1.0, Rho=1.0, T=1.0 at the farfield).
The reference area is 1 m^2.
The semi-span will be computed using the max y(3D) value.
The reference length is 1 m.
Reference origin for moment evaluation is (0.25, 0, 0).
Surface(s) where the force coefficients are evaluated: airfoil.

Surface(s) plotted in the output file: airfoil.
Surface(s) affected by the design variables: airfoil.
Input mesh file name: mesh_NACA0012_inv.su2

---------------- Design problem definition  ( Zone 0 ) ------------------
CD objective function.

--------------- Space Numerical Integration ( Zone 0 ) ------------------
Jameson-Schmidt-Turkel scheme for the adjoint inviscid terms.
JST viscous coefficients (1st, 2nd, & 4th): 0.15, 0, 0.02.
The method includes a grid stretching correction (p = 0.3).
Second order integration.
The reference sharp edge distance is: 0.15. 
Gradient for upwind reconstruction: Green-Gauss.
Gradient for viscous and source terms: Green-Gauss.

--------------- Time Numerical Integration  ( Zone 0 ) ------------------
Local time stepping (steady state simulation).
Euler implicit method for the adjoint equations.
V Multigrid Cycle, with 2 multigrid levels.
Damping factor for the residual restriction: 1.
Damping factor for the correction prolongation: 1.
No CFL adaptation.
+-------------------------------------------+
|  MG Level| Presmooth|PostSmooth|CorrectSmo|
+-------------------------------------------+
|         0|         1|         0|         0|
|         1|         2|         0|         0|
|         2|         3|         0|         0|
+-------------------------------------------+
Courant-Friedrichs-Lewy number:        8

------------------ Convergence Criteria  ( Zone 0 ) ---------------------
Maximum number of solver subiterations: 1000.
Begin convergence monitoring at iteration 10.
Residual minimum value: 1e-13.
Cauchy series min. value: 1e-06.
Number of Cauchy elements: 100.
Begin windowed time average at iteration 0.

-------------------- Output Information ( Zone 0 ) ----------------------
Writing solution files every 250 iterations.
Writing the convergence history file every 1 inner iterations.
Writing the screen convergence history every 1 inner iterations.
The tabular file format is CSV (.csv).
Convergence history file name: history_adjoint.
Forces breakdown file name: forces_breakdown.dat.
Adjoint solution file name: solution_adj.dat.
Restart adjoint file name: restart_adj.dat.
Adjoint variables file name: adjoint.
Surface adjoint file name: surface_adjoint.

------------- Config File Boundary Information ( Zone 0 ) ---------------
+-----------------------------------------------------------------------+
|                        Marker Type|                        Marker Name|
+-----------------------------------------------------------------------+
|                         Euler wall|                            airfoil|
+-----------------------------------------------------------------------+
|                          Far-field|                           farfield|
+-----------------------------------------------------------------------+

-------------------- Output Preprocessing ( Zone 0 ) --------------------
  Info: Ignoring the following screen output fields:
  RMS_DENSITY, RMS_ENERGY, LIFT, DRAG
Screen output fields: INNER_ITER
  Info: Ignoring the following history output groups:
  AERO_COEFF
History output group(s): ITER, RMS_RES
Convergence field(s): RMS_ADJ_DENSITY
Warning: No (valid) fields chosen for time convergence monitoring. Time convergence monitoring inactive.
Volume output fields: COORDINATES, SOLUTION, SENSITIVITY

------------------- Geometry Preprocessing ( Zone 0 ) -------------------
Two dimensional problem.
5233 grid points.
10216 volume elements.
2 surface markers.
200 boundary elements in index 0 (Marker = airfoil).
50 boundary elements in index 1 (Marker = farfield).
10216 triangles.
Setting point connectivity.
Renumbering points (Reverse Cuthill McKee Ordering).
Recomputing point connectivity.
Setting element connectivity.
Checking the numerical grid orientation.
Identifying edges and vertices.
Computing centers of gravity.
Setting the control volume structure.
Area of the computational grid: 1253.25.
Searching for the closest normal neighbors to the surfaces.
Storing a mapping from global to local point index.
Compute the surface curvature.
Max K: 7835.1. Mean K: 34.8252. Standard deviation K: 494.448.
Checking for periodicity.
Computing mesh quality statistics for the dual control volumes.
+--------------------------------------------------------------+
|           Mesh Quality Metric|        Minimum|        Maximum|
+--------------------------------------------------------------+
|    Orthogonality Angle (deg.)|        62.6714|        89.7089|
|     CV Face Area Aspect Ratio|        1.00001|        7.18337|
|           CV Sub-Volume Ratio|        1.00285|        6.47826|
+--------------------------------------------------------------+
Setting the multigrid structure.
+-------------------------------------------+
|  MG Level|       CVs|Aggl. Rate|       CFL|
+-------------------------------------------+
|         0|      5233|    1/1.00|         8|
|         1|      1533|    1/3.41|   6.49497|
|         2|       443|    1/3.46|    5.2372|
+-------------------------------------------+
Finding max control volume width.
Wetted area = 2.03916 m.
Area projection in the x-plane = 0.119981 m, y-plane = 0.999845 m.
Max. coordinate in the x-direction = 1 m, y-direction = 0.0600055 m.
Min. coordinate in the x-direction = 0 m, y-direction = -0.0600055 m.
Checking if Euler & Symmetry markers are straight/plane:
Boundary marker airfoil is NOT a single straight.
Computing wall distances.

-------------------- Solver Preprocessing ( Zone 0 ) --------------------
Inviscid flow: Computing density based on free-stream
temperature and pressure using the ideal gas law.
Force coefficients computed using free-stream values.

-- Models:
+------------------------------------------------------------------------------+
|          Viscosity Model|        Conductivity Model|              Fluid Model|
+------------------------------------------------------------------------------+
|                        -|                         -|             STANDARD_AIR|
+------------------------------------------------------------------------------+
-- Fluid properties:
+------------------------------------------------------------------------------+
|                  Name|    Dim. value|    Ref. value|      Unit|Non-dim. value|
+------------------------------------------------------------------------------+
|          Gas Constant|       287.058|       287.058|  N.m/kg.K|             1|
|      Spec. Heat Ratio|             -|             -|         -|           1.4|
+------------------------------------------------------------------------------+
-- Initial and free-stream conditions:
+------------------------------------------------------------------------------+
|                  Name|    Dim. value|    Ref. value|      Unit|Non-dim. value|
+------------------------------------------------------------------------------+
|       Static Pressure|        101325|        101325|        Pa|             1|
|               Density|       1.22498|       1.22498|    kg/m^3|             1|
|           Temperature|        288.15|        288.15|         K|             1|
|          Total Energy|        209105|       82715.8|   m^2/s^2|         2.528|
|            Velocity-X|       68.0594|       287.603|       m/s|      0.236643|
|            Velocity-Y|             0|       287.603|       m/s|             0|
|    Velocity Magnitude|       68.0594|       287.603|       m/s|      0.236643|
+------------------------------------------------------------------------------+
|           Mach Number|             -|             -|         -|           0.2|
+------------------------------------------------------------------------------+
Initialize Jacobian structure (Euler). MG level: 0.
Initialize Jacobian structure (Adjoint Euler). MG level: 0.
Initialize Jacobian structure (Euler). MG level: 1.
Initialize Jacobian structure (Adjoint Euler). MG level: 1.
Initialize Jacobian structure (Euler). MG level: 2.
Initialize Jacobian structure (Adjoint Euler). MG level: 2.

------------------- Numerics Preprocessing ( Zone 0 ) -------------------

----------------- Integration Preprocessing ( Zone 0 ) ------------------

------------------- Iteration Preprocessing ( Zone 0 ) ------------------
Adjoint Euler/Navier-Stokes/RANS fluid iteration.

------------------------------ Begin Solver -----------------------------

Simulation Run using the Single-zone Driver
Begin direct solver to store flow data (single iteration).
Compute residuals to check the convergence of the direct problem.
log10[Maximum residual]: -12.0256, located at point 4097.
End direct solver, begin adjoint problem.
+------------+
|  Inner_Iter|
+------------+
|           0|
|           1|
|           2|
|           3|
|           4|
|           5|
|           6|
|           7|
|           8|
|           9|
|          10|
|          11|
|          12|
|          13|
|          14|
|          15|
|          16|
|          17|
|          18|
|          19|
|          20|
|          21|
|          22|
|          23|
|          24|
|          25|
|          26|
|          27|
|          28|
|          29|
|          30|
|          31|
|          32|
|          33|
|          34|
|          35|
|          36|
|          37|
|          38|
|          39|
|          40|
|          41|
|          42|
|          43|
|          44|
|          45|
|          46|
|          47|
|          48|
|          49|
|          50|
|          51|
|          52|
|          53|
|          54|
|          55|
|          56|
|          57|
|          58|
|          59|
|          60|
|          61|
|          62|
|          63|
|          64|
|          65|
|          66|
|          67|
|          68|
|          69|
|          70|
|          71|
|          72|
|          73|
|          74|
|          75|
|          76|
|          77|
|          78|
|          79|
|          80|
|          81|
|          82|
|          83|
|          84|
|          85|
|          86|
|          87|
|          88|
|          89|
|          90|
|          91|
|          92|
|          93|
|          94|
|          95|
|          96|
|          97|
|          98|
|          99|
|         100|
|         101|
|         102|
|         103|
|         104|
|         105|
|         106|
|         107|
|         108|
|         109|
|         110|
|         111|
|         112|
|         113|
|         114|
|         115|
|         116|
|         117|
|         118|
|         119|
|         120|
|         121|
|         122|
|         123|
|         124|
|         125|
|         126|
|         127|
|         128|
|         129|
|         130|
|         131|
|         132|
|         133|
|         134|
|         135|
|         136|
|         137|
|         138|
|         139|
|         140|
|         141|
|         142|
|         143|
|         144|
|         145|
|         146|
|         147|
|         148|
|         149|
|         150|
|         151|
|         152|
|         153|
|         154|
|         155|
|         156|
|         157|
|         158|
|         159|
|         160|
|         161|
|         162|
|         163|
|         164|
|         165|
|         166|
|         167|
|         168|
|         169|
|         170|
|         171|
|         172|
|         173|
|         174|
|         175|
|         176|
|         177|
|         178|
|         179|
|         180|
|         181|
|         182|
|         183|
|         184|
|         185|
|         186|
|         187|
|         188|
|         189|
|         190|
|         191|
|         192|
|         193|
|         194|
|         195|
|         196|
|         197|
|         198|
|         199|
|         200|
|         201|
|         202|
|         203|
|         204|
|         205|
|         206|
|         207|
|         208|
|         209|
|         210|
|         211|
|         212|
|         213|
|         214|
|         215|
|         216|
|         217|
|         218|
|         219|
|         220|
|         221|
|         222|
|         223|
|         224|
|         225|
|         226|
|         227|
|         228|
|         229|
|         230|
|         231|
|         232|
|         233|
|         234|
|         235|
|         236|
|         237|
|         238|
|         239|
|         240|
|         241|
|         242|
|         243|
|         244|
|         245|
|         246|
|         247|
|         248|
|         249|
|         250|
+-----------------------------------------------------------------------+
|        File Writing Summary       |              Filename             |
+-----------------------------------------------------------------------+
|SU2 restart                        |restart_adj_cd.dat                 |
|Paraview                           |adjoint.vtu                        |
|Paraview surface                   |surface_adjoint.vtu                |
|CSV file                           |surface_adjoint.csv                |
+-----------------------------------------------------------------------+
+------------+
|  Inner_Iter|
+------------+
|         251|
|         252|
|         253|
|         254|
|         255|
|         256|
|         257|
|         258|
|         259|
|         260|
|         261|
|         262|
|         263|
|         264|
|         265|
|         266|
|         267|
|         268|
|         269|
|         270|
|         271|
|         272|
|         273|
|         274|
|         275|
|         276|
|         277|
|         278|
|         279|
|         280|
|         281|
|         282|
|         283|
|         284|
|         285|
|         286|
|         287|
|         288|
|         289|
|         290|
|         291|
|         292|
|         293|
|         294|
|         295|
|         296|
|         297|
|         298|
|         299|
|         300|
|         301|
|         302|
|         303|
|         304|
|         305|
|         306|
|         307|
|         308|
|         309|
|         310|
|         311|
|         312|
|         313|
|         314|
|         315|
|         316|
|         317|
|         318|
|         319|
|         320|
|         321|
|         322|
|         323|
|         324|
|         325|
|         326|
|         327|
|         328|
|         329|
|         330|
|         331|
|         332|
|         333|
|         334|
|         335|
|         336|
|         337|
|         338|
|         339|
|         340|
|         341|
|         342|
|         343|
|         344|
|         345|
|         346|
|         347|
|         348|
|         349|
|         350|
|         351|
|         352|
|         353|
|         354|
|         355|
|         356|
|         357|
|         358|
|         359|
|         360|
|         361|
|         362|
|         363|
|         364|
|         365|
|         366|
|         367|
|         368|
|         369|
|         370|
|         371|
|         372|
|         373|
|         374|
|         375|
|         376|
|         377|
|         378|
|         379|
|         380|
|         381|
|         382|
|         383|
|         384|
|         385|
|         386|
|         387|
|         388|
|         389|
|         390|
|         391|
|         392|
|         393|
|         394|
|         395|
|         396|
|         397|
|         398|
|         399|
|         400|
|         401|
|         402|
|         403|
|         404|
|         405|
|         406|
|         407|
|         408|
|         409|
|         410|
|         411|
|         412|
|         413|
|         414|
|         415|
|         416|
|         417|
|         418|
|         419|
|         420|
|         421|
|         422|
|         423|
|         424|
|         425|
|         426|
|         427|
|         428|
|         429|
|         430|
|         431|
|         432|
|         433|
|         434|
|         435|
|         436|
|         437|
|         438|
|         439|
|         440|
|         441|
|         442|
|         443|
|         444|
|         445|
|         446|
|         447|
|         448|
|         449|
|         450|
|         451|
|         452|
|         453|
|         454|
|         455|
|         456|
|         457|
|         458|
|         459|
|         460|
|         461|
|         462|
|         463|
|         464|
|         465|
|         466|
|         467|
|         468|
|         469|
|         470|
|         471|

----------------------------- Solver Exit -------------------------------
All convergence criteria satisfied.
+-----------------------------------------------------------------------+
|      Convergence Field     |     Value    |   Criterion  |  Converged |
+-----------------------------------------------------------------------+
|                  rms[A_Rho]|      -13.0024|         < -13|         Yes|
+-----------------------------------------------------------------------+
-------------------------------------------------------------------------
+-----------------------------------------------------------------------+
|        File Writing Summary       |              Filename             |
+-----------------------------------------------------------------------+
|SU2 restart                        |restart_adj_cd.dat                 |
|Paraview                           |adjoint.vtu                        |
|Paraview surface                   |surface_adjoint.vtu                |
|CSV file                           |surface_adjoint.csv                |
+-----------------------------------------------------------------------+

------------------------- Solver Postprocessing -------------------------
Deleted CNumerics container.
Deleted CIntegration container.
Deleted CSolver container.
Deleted CIteration container.
Deleted CInterpolator container.
Deleted CInterface container.
Deleted CGeometry container.
Deleted CFreeFormDefBox class.
Deleted CSurfaceMovement class.
Deleted CVolumetricMovement class.
Deleted CConfig container.
Deleted nInst container.
Deleted COutput class.
-------------------------------------------------------------------------

------------------------- Exit Success (SU2_CFD) ------------------------


-------------------------------------------------------------------------
|    ___ _   _ ___                                                      |
|   / __| | | |_  )   Release 7.0.5 "Blackbird"                         |
|   \__ \ |_| |/ /                                                      |
|   |___/\___//___|   Suite (Gradient Projection Code)                  |
|                                                                       |
-------------------------------------------------------------------------
| SU2 Project Website: https://su2code.github.io                        |
|                                                                       |
| The SU2 Project is maintained by the SU2 Foundation                   |
| (http://su2foundation.org)                                            |
-------------------------------------------------------------------------
| Copyright 2012-2020, SU2 Contributors                                 |
|                                                                       |
| SU2 is free software; you can redistribute it and/or                  |
| modify it under the terms of the GNU Lesser General Public            |
| License as published by the Free Software Foundation; either          |
| version 2.1 of the License, or (at your option) any later version.    |
|                                                                       |
| SU2 is distributed in the hope that it will be useful,                |
| but WITHOUT ANY WARRANTY; without even the implied warranty of        |
| MERCHANTABILITY or FITNESS FOR A PARTICULAR PURPOSE. See the GNU      |
| Lesser General Public License for more details.                       |
|                                                                       |
| You should have received a copy of the GNU Lesser General Public      |
| License along with SU2. If not, see <http://www.gnu.org/licenses/>.   |
-------------------------------------------------------------------------

----------------- Physical Case Definition ( Zone 0 ) -------------------
Input mesh file name: mesh_NACA0012_inv.su2
Input sensitivity file name: surface_adjoint.

-------------- Surface deformation parameters ( Zone 0 ) ----------------
Design variables definition (markers <-> value <-> param):
Hicks Henne <-> airfoil <-> 0.001 <-> ( 0, 0.05 )
Hicks Henne <-> airfoil <-> 0.001 <-> ( 0, 0.1 )
Hicks Henne <-> airfoil <-> 0.001 <-> ( 0, 0.15 )
Hicks Henne <-> airfoil <-> 0.001 <-> ( 0, 0.2 )
Hicks Henne <-> airfoil <-> 0.001 <-> ( 0, 0.25 )
Hicks Henne <-> airfoil <-> 0.001 <-> ( 0, 0.3 )
Hicks Henne <-> airfoil <-> 0.001 <-> ( 0, 0.35 )
Hicks Henne <-> airfoil <-> 0.001 <-> ( 0, 0.4 )
Hicks Henne <-> airfoil <-> 0.001 <-> ( 0, 0.45 )
Hicks Henne <-> airfoil <-> 0.001 <-> ( 0, 0.5 )
Hicks Henne <-> airfoil <-> 0.001 <-> ( 0, 0.55 )
Hicks Henne <-> airfoil <-> 0.001 <-> ( 0, 0.6 )
Hicks Henne <-> airfoil <-> 0.001 <-> ( 0, 0.65 )
Hicks Henne <-> airfoil <-> 0.001 <-> ( 0, 0.7 )
Hicks Henne <-> airfoil <-> 0.001 <-> ( 0, 0.75 )
Hicks Henne <-> airfoil <-> 0.001 <-> ( 0, 0.8 )
Hicks Henne <-> airfoil <-> 0.001 <-> ( 0, 0.85 )
Hicks Henne <-> airfoil <-> 0.001 <-> ( 0, 0.9 )
Hicks Henne <-> airfoil <-> 0.001 <-> ( 0, 0.95 )
Hicks Henne <-> airfoil <-> 0.001 <-> ( 1, 0.05 )
Hicks Henne <-> airfoil <-> 0.001 <-> ( 1, 0.1 )
Hicks Henne <-> airfoil <-> 0.001 <-> ( 1, 0.15 )
Hicks Henne <-> airfoil <-> 0.001 <-> ( 1, 0.2 )
Hicks Henne <-> airfoil <-> 0.001 <-> ( 1, 0.25 )
Hicks Henne <-> airfoil <-> 0.001 <-> ( 1, 0.3 )
Hicks Henne <-> airfoil <-> 0.001 <-> ( 1, 0.35 )
Hicks Henne <-> airfoil <-> 0.001 <-> ( 1, 0.4 )
Hicks Henne <-> airfoil <-> 0.001 <-> ( 1, 0.45 )
Hicks Henne <-> airfoil <-> 0.001 <-> ( 1, 0.5 )
Hicks Henne <-> airfoil <-> 0.001 <-> ( 1, 0.55 )
Hicks Henne <-> airfoil <-> 0.001 <-> ( 1, 0.6 )
Hicks Henne <-> airfoil <-> 0.001 <-> ( 1, 0.65 )
Hicks Henne <-> airfoil <-> 0.001 <-> ( 1, 0.7 )
Hicks Henne <-> airfoil <-> 0.001 <-> ( 1, 0.75 )
Hicks Henne <-> airfoil <-> 0.001 <-> ( 1, 0.8 )
Hicks Henne <-> airfoil <-> 0.001 <-> ( 1, 0.85 )
Hicks Henne <-> airfoil <-> 0.001 <-> ( 1, 0.9 )
Hicks Henne <-> airfoil <-> 0.001 <-> ( 1, 0.95 )

---------------- Design problem definition  ( Zone 0 ) ------------------
CD objective function.

-------------------- Output Information ( Zone 0 ) ----------------------
Output gradient file name: of_grad.dat. 

------------- Config File Boundary Information ( Zone 0 ) ---------------
+-----------------------------------------------------------------------+
|                        Marker Type|                        Marker Name|
+-----------------------------------------------------------------------+
|                         Euler wall|                            airfoil|
+-----------------------------------------------------------------------+
|                          Far-field|                           farfield|
+-----------------------------------------------------------------------+
Two dimensional problem.
5233 grid points.
10216 volume elements.
2 surface markers.
200 boundary elements in index 0 (Marker = airfoil).
50 boundary elements in index 1 (Marker = farfield).
10216 triangles.
Identify vertices.
Storing a mapping from global to local point index.

----------------------- Preprocessing computations ----------------------
Setting local point connectivity.
Checking the numerical grid orientation of the elements.
Identify edges and vertices.
Computing centers of gravity.
Setting the bound control volume structure.
Storing a mapping from global to local point index.
Reading surface sensitivities at each node from file.

---------- Start gradient evaluation using sensitivity information ----------
Evaluate functional gradient using Finite Differences.

Design variable (HICKS_HENNE) number 0.
DRAG gradient : -0.0384202
-------------------------------------------------------------------------

Design variable (HICKS_HENNE) number 1.
DRAG gradient : -0.0161257
-------------------------------------------------------------------------

Design variable (HICKS_HENNE) number 2.
DRAG gradient : -0.0042006
-------------------------------------------------------------------------

Design variable (HICKS_HENNE) number 3.
DRAG gradient : 0.00168258
-------------------------------------------------------------------------

Design variable (HICKS_HENNE) number 4.
DRAG gradient : 0.00413657
-------------------------------------------------------------------------

Design variable (HICKS_HENNE) number 5.
DRAG gradient : 0.00473454
-------------------------------------------------------------------------

Design variable (HICKS_HENNE) number 6.
DRAG gradient : 0.00440987
-------------------------------------------------------------------------

Design variable (HICKS_HENNE) number 7.
DRAG gradient : 0.00369598
-------------------------------------------------------------------------

Design variable (HICKS_HENNE) number 8.
DRAG gradient : 0.00287982
-------------------------------------------------------------------------

Design variable (HICKS_HENNE) number 9.
DRAG gradient : 0.00210315
-------------------------------------------------------------------------

Design variable (HICKS_HENNE) number 10.
DRAG gradient : 0.0014291
-------------------------------------------------------------------------

Design variable (HICKS_HENNE) number 11.
DRAG gradient : 0.00088436
-------------------------------------------------------------------------

Design variable (HICKS_HENNE) number 12.
DRAG gradient : 0.000483548
-------------------------------------------------------------------------

Design variable (HICKS_HENNE) number 13.
DRAG gradient : 0.000239559
-------------------------------------------------------------------------

Design variable (HICKS_HENNE) number 14.
DRAG gradient : 0.00016262
-------------------------------------------------------------------------

Design variable (HICKS_HENNE) number 15.
DRAG gradient : 0.000250405
-------------------------------------------------------------------------

Design variable (HICKS_HENNE) number 16.
DRAG gradient : 0.000470909
-------------------------------------------------------------------------

Design variable (HICKS_HENNE) number 17.
DRAG gradient : 0.000741359
-------------------------------------------------------------------------

Design variable (HICKS_HENNE) number 18.
DRAG gradient : 0.00103842
-------------------------------------------------------------------------

Design variable (HICKS_HENNE) number 19.
DRAG gradient : -0.0379294
-------------------------------------------------------------------------

Design variable (HICKS_HENNE) number 20.
DRAG gradient : -0.0159438
-------------------------------------------------------------------------

Design variable (HICKS_HENNE) number 21.
DRAG gradient : -0.00415273
-------------------------------------------------------------------------

Design variable (HICKS_HENNE) number 22.
DRAG gradient : 0.0016833
-------------------------------------------------------------------------

Design variable (HICKS_HENNE) number 23.
DRAG gradient : 0.00413029
-------------------------------------------------------------------------

Design variable (HICKS_HENNE) number 24.
DRAG gradient : 0.00473566
-------------------------------------------------------------------------

Design variable (HICKS_HENNE) number 25.
DRAG gradient : 0.00441967
-------------------------------------------------------------------------

Design variable (HICKS_HENNE) number 26.
DRAG gradient : 0.00371039
-------------------------------------------------------------------------

Design variable (HICKS_HENNE) number 27.
DRAG gradient : 0.0028939
-------------------------------------------------------------------------

Design variable (HICKS_HENNE) number 28.
DRAG gradient : 0.00211276
-------------------------------------------------------------------------

Design variable (HICKS_HENNE) number 29.
DRAG gradient : 0.00143054
-------------------------------------------------------------------------

Design variable (HICKS_HENNE) number 30.
DRAG gradient : 0.00087281
-------------------------------------------------------------------------

Design variable (HICKS_HENNE) number 31.
DRAG gradient : 0.000451712
-------------------------------------------------------------------------

Design variable (HICKS_HENNE) number 32.
DRAG gradient : 0.000178425
-------------------------------------------------------------------------

Design variable (HICKS_HENNE) number 33.
DRAG gradient : 6.61266e-05
-------------------------------------------------------------------------

Design variable (HICKS_HENNE) number 34.
DRAG gradient : 0.000125222
-------------------------------------------------------------------------

Design variable (HICKS_HENNE) number 35.
DRAG gradient : 0.000348481
-------------------------------------------------------------------------

Design variable (HICKS_HENNE) number 36.
DRAG gradient : 0.000669771
-------------------------------------------------------------------------

Design variable (HICKS_HENNE) number 37.
DRAG gradient : 0.00100398
-------------------------------------------------------------------------

------------------------- Solver Postprocessing -------------------------
Deleted CGeometry container.
Deleted CSurfaceMovement class.
Deleted CVolumetricMovement class.
Deleted CConfig container.

Completed in 0.023516 seconds on 1 core.

------------------------- Exit Success (SU2_DOT) ------------------------

