
-------------------------------------------------------------------------
|    ___ _   _ ___                                                      |
|   / __| | | |_  )   Release 7.0.5 "Blackbird"                         |
|   \__ \ |_| |/ /                                                      |
|   |___/\___//___|   Suite (Computational Fluid Dynamics Code)         |
|                                                                       |
-------------------------------------------------------------------------
| SU2 Project Website: https://su2code.github.io                        |
|                                                                       |
| The SU2 Project is maintained by the SU2 Foundation                   |
| (http://su2foundation.org)                                            |
-------------------------------------------------------------------------
| Copyright 2012-2020, SU2 Contributors                                 |
|                                                                       |
| SU2 is free software; you can redistribute it and/or                  |
| modify it under the terms of the GNU Lesser General Public            |
| License as published by the Free Software Foundation; either          |
| version 2.1 of the License, or (at your option) any later version.    |
|                                                                       |
| SU2 is distributed in the hope that it will be useful,                |
| but WITHOUT ANY WARRANTY; without even the implied warranty of        |
| MERCHANTABILITY or FITNESS FOR A PARTICULAR PURPOSE. See the GNU      |
| Lesser General Public License for more details.                       |
|                                                                       |
| You should have received a copy of the GNU Lesser General Public      |
| License along with SU2. If not, see <http://www.gnu.org/licenses/>.   |
-------------------------------------------------------------------------

Parsing config file for zone 0

----------------- Physical Case Definition ( Zone 0 ) -------------------
Compressible Euler equations.
Mach number: 0.2.
Angle of attack (AoA): 0.5 deg, and angle of sideslip (AoS): 0 deg.
No restart solution, use the values at infinity (freestream).
Non-Dimensional simulation (P=1.0, Rho=1.0, T=1.0 at the farfield).
The reference area is 1 m^2.
The semi-span will be computed using the max y(3D) value.
The reference length is 1 m.
Reference origin for moment evaluation is (0.25, 0, 0).
Surface(s) where the force coefficients are evaluated: airfoil.

Surface(s) plotted in the output file: airfoil.
Surface(s) affected by the design variables: airfoil.
Input mesh file name: mesh_NACA0012_inv.su2

--------------- Space Numerical Integration ( Zone 0 ) ------------------
Jameson-Schmidt-Turkel scheme (2nd order in space) for the flow inviscid terms.
JST viscous coefficients (2nd & 4th): 0.5, 0.02.
The method includes a grid stretching correction (p = 0.3).
Gradient for upwind reconstruction: Green-Gauss.
Gradient for viscous and source terms: Green-Gauss.

--------------- Time Numerical Integration  ( Zone 0 ) ------------------
Local time stepping (steady state simulation).
Euler implicit method for the flow equations.
FGMRES is used for solving the linear system.
Using a LU-SGS preconditioning.
Convergence criteria of the linear solver: 0.0001.
Max number of linear iterations: 2.
V Multigrid Cycle, with 2 multigrid levels.
Damping factor for the residual restriction: 1.
Damping factor for the correction prolongation: 1.
No CFL adaptation.
+-------------------------------------------+
|  MG Level| Presmooth|PostSmooth|CorrectSmo|
+-------------------------------------------+
|         0|         1|         0|         0|
|         1|         2|         0|         0|
|         2|         3|         0|         0|
+-------------------------------------------+
Courant-Friedrichs-Lewy number:       10

------------------ Convergence Criteria  ( Zone 0 ) ---------------------
Maximum number of solver subiterations: 1000.
Begin convergence monitoring at iteration 10.
Residual minimum value: 1e-13.
Cauchy series min. value: 1e-06.
Number of Cauchy elements: 100.
Begin windowed time average at iteration 0.

-------------------- Output Information ( Zone 0 ) ----------------------
Writing solution files every 250 iterations.
Writing the convergence history file every 1 inner iterations.
Writing the screen convergence history every 1 inner iterations.
The tabular file format is CSV (.csv).
Convergence history file name: history_direct.
Forces breakdown file name: forces_breakdown.dat.
Surface file name: surface_flow.
Volume file name: flow.
Restart file name: restart_flow.dat.

------------- Config File Boundary Information ( Zone 0 ) ---------------
+-----------------------------------------------------------------------+
|                        Marker Type|                        Marker Name|
+-----------------------------------------------------------------------+
|                         Euler wall|                            airfoil|
+-----------------------------------------------------------------------+
|                          Far-field|                           farfield|
+-----------------------------------------------------------------------+

-------------------- Output Preprocessing ( Zone 0 ) --------------------
Screen output fields: INNER_ITER, RMS_DENSITY, RMS_ENERGY, LIFT, DRAG
History output group(s): ITER, RMS_RES, AERO_COEFF
Convergence field(s): RMS_DENSITY
Warning: No (valid) fields chosen for time convergence monitoring. Time convergence monitoring inactive.
Volume output fields: COORDINATES, SOLUTION, PRIMITIVE

------------------- Geometry Preprocessing ( Zone 0 ) -------------------
Two dimensional problem.
5233 grid points.
10216 volume elements.
2 surface markers.
200 boundary elements in index 0 (Marker = airfoil).
50 boundary elements in index 1 (Marker = farfield).
10216 triangles.
Setting point connectivity.
Renumbering points (Reverse Cuthill McKee Ordering).
Recomputing point connectivity.
Setting element connectivity.
Checking the numerical grid orientation.
Identifying edges and vertices.
Computing centers of gravity.
Setting the control volume structure.
Area of the computational grid: 1253.25.
Searching for the closest normal neighbors to the surfaces.
Storing a mapping from global to local point index.
Compute the surface curvature.
Max K: 7835.1. Mean K: 34.8252. Standard deviation K: 494.448.
Checking for periodicity.
Computing mesh quality statistics for the dual control volumes.
+--------------------------------------------------------------+
|           Mesh Quality Metric|        Minimum|        Maximum|
+--------------------------------------------------------------+
|    Orthogonality Angle (deg.)|        62.6714|        89.7089|
|     CV Face Area Aspect Ratio|        1.00001|        7.18337|
|           CV Sub-Volume Ratio|        1.00285|        6.47826|
+--------------------------------------------------------------+
Setting the multigrid structure.
+-------------------------------------------+
|  MG Level|       CVs|Aggl. Rate|       CFL|
+-------------------------------------------+
|         0|      5233|    1/1.00|        10|
|         1|      1533|    1/3.41|   8.11871|
|         2|       443|    1/3.46|    6.5465|
+-------------------------------------------+
Finding max control volume width.
Wetted area = 2.03916 m.
Area projection in the x-plane = 0.119981 m, y-plane = 0.999845 m.
Max. coordinate in the x-direction = 1 m, y-direction = 0.0600055 m.
Min. coordinate in the x-direction = 0 m, y-direction = -0.0600055 m.
Checking if Euler & Symmetry markers are straight/plane:
Boundary marker airfoil is NOT a single straight.
Computing wall distances.

-------------------- Solver Preprocessing ( Zone 0 ) --------------------
Inviscid flow: Computing density based on free-stream
temperature and pressure using the ideal gas law.
Force coefficients computed using free-stream values.

-- Models:
+------------------------------------------------------------------------------+
|          Viscosity Model|        Conductivity Model|              Fluid Model|
+------------------------------------------------------------------------------+
|                        -|                         -|             STANDARD_AIR|
+------------------------------------------------------------------------------+
-- Fluid properties:
+------------------------------------------------------------------------------+
|                  Name|    Dim. value|    Ref. value|      Unit|Non-dim. value|
+------------------------------------------------------------------------------+
|          Gas Constant|       287.058|       287.058|  N.m/kg.K|             1|
|      Spec. Heat Ratio|             -|             -|         -|           1.4|
+------------------------------------------------------------------------------+
-- Initial and free-stream conditions:
+------------------------------------------------------------------------------+
|                  Name|    Dim. value|    Ref. value|      Unit|Non-dim. value|
+------------------------------------------------------------------------------+
|       Static Pressure|        101325|        101325|        Pa|             1|
|               Density|       1.22498|       1.22498|    kg/m^3|             1|
|           Temperature|        288.15|        288.15|         K|             1|
|          Total Energy|        209105|       82715.8|   m^2/s^2|         2.528|
|            Velocity-X|       68.0568|       287.603|       m/s|      0.236634|
|            Velocity-Y|      0.593923|       287.603|       m/s|    0.00206508|
|    Velocity Magnitude|       68.0594|       287.603|       m/s|      0.236643|
+------------------------------------------------------------------------------+
|           Mach Number|             -|             -|         -|           0.2|
+------------------------------------------------------------------------------+
Initialize Jacobian structure (Euler). MG level: 0.
Initialize Jacobian structure (Euler). MG level: 1.
Initialize Jacobian structure (Euler). MG level: 2.

------------------- Numerics Preprocessing ( Zone 0 ) -------------------

----------------- Integration Preprocessing ( Zone 0 ) ------------------

------------------- Iteration Preprocessing ( Zone 0 ) ------------------
Euler/Navier-Stokes/RANS fluid iteration.

------------------------------ Begin Solver -----------------------------

Simulation Run using the Single-zone Driver
+----------------------------------------------------------------+
|  Inner_Iter|    rms[Rho]|   rms[RhoE]|          CL|          CD|
+----------------------------------------------------------------+
|           0|   -4.192894|   -3.645365|    0.185265|    0.742188|
|           1|   -4.313549|   -3.757978|    0.148642|   -0.019183|
|           2|   -4.426290|   -3.875234|    0.005831|   -0.125914|
|           3|   -4.422892|   -3.865394|   -0.074989|   -0.029313|
|           4|   -4.359701|   -3.809129|   -0.007794|    0.070178|
|           5|   -4.385502|   -3.836844|    0.100479|    0.070556|
|           6|   -4.475480|   -3.920397|    0.101273|   -0.010612|
|           7|   -4.419706|   -3.872430|    0.013011|   -0.041234|
|           8|   -4.668365|   -4.113147|   -0.020048|    0.008442|
|           9|   -4.554149|   -4.005637|    0.038452|    0.037522|
|          10|   -4.833242|   -4.283745|    0.087741|    0.005158|
|          11|   -4.797477|   -4.245749|    0.063680|   -0.022663|
|          12|   -4.886707|   -4.339378|    0.018748|   -0.005811|
|          13|   -5.110504|   -4.555617|    0.020006|    0.018015|
|          14|   -5.022658|   -4.472506|    0.054351|    0.010229|
|          15|   -5.264453|   -4.716751|    0.069623|   -0.010901|
|          16|   -5.268556|   -4.717057|    0.052419|   -0.010618|
|          17|   -5.354394|   -4.807681|    0.033917|    0.006288|
|          18|   -5.540299|   -4.987099|    0.039071|    0.011024|
|          19|   -5.517822|   -4.966900|    0.056096|   -0.000407|
|          20|   -5.647782|   -5.098424|    0.060329|   -0.007690|
|          21|   -5.640334|   -5.090492|    0.049968|   -0.001729|
|          22|   -5.671041|   -5.124843|    0.042849|    0.005176|
|          23|   -5.781933|   -5.231947|    0.048073|    0.002784|
|          24|   -5.677726|   -5.129897|    0.055418|   -0.002464|
|          25|   -5.830831|   -5.282815|    0.054774|   -0.002109|
|          26|   -5.756456|   -5.207797|    0.049740|    0.001303|
|          27|   -5.796239|   -5.250922|    0.048614|    0.001701|
|          28|   -5.925850|   -5.373349|    0.052147|   -0.000457|
|          29|   -5.844345|   -5.295344|    0.054668|   -0.001060|
|          30|   -6.013654|   -5.466106|    0.053594|    0.000340|
|          31|   -5.987498|   -5.439030|    0.051775|    0.000994|
|          32|   -6.033293|   -5.487060|    0.052018|    0.000069|
|          33|   -6.126572|   -5.576789|    0.053679|   -0.000670|
|          34|   -6.111194|   -5.561778|    0.054616|   -0.000187|
|          35|   -6.195195|   -5.645896|    0.054195|    0.000570|
|          36|   -6.233615|   -5.683356|    0.053527|    0.000499|
|          37|   -6.250719|   -5.702812|    0.053640|   -0.000146|
|          38|   -6.282204|   -5.736055|    0.054377|   -0.000415|
|          39|   -6.299266|   -5.753204|    0.054987|   -0.000084|
|          40|   -6.326681|   -5.779934|    0.055055|    0.000307|
|          41|   -6.352098|   -5.804799|    0.054854|    0.000252|
|          42|   -6.374396|   -5.827393|    0.054883|   -0.000062|
|          43|   -6.410588|   -5.863069|    0.055264|   -0.000173|
|          44|   -6.434507|   -5.885619|    0.055695|   -0.000012|
|          45|   -6.459888|   -5.909605|    0.055905|    0.000132|
|          46|   -6.491142|   -5.938861|    0.055926|    0.000086|
|          47|   -6.507933|   -5.954392|    0.055969|   -0.000026|
|          48|   -6.545095|   -5.990591|    0.056166|   -0.000039|
|          49|   -6.583234|   -6.027436|    0.056446|    0.000030|
|          50|   -6.602792|   -6.046121|    0.056653|    0.000055|
|          51|   -6.633118|   -6.074675|    0.056751|    0.000012|
|          52|   -6.658822|   -6.099167|    0.056820|   -0.000027|
|          53|   -6.680772|   -6.121763|    0.056945|   -0.000012|
|          54|   -6.710205|   -6.152336|    0.057133|    0.000024|
|          55|   -6.735500|   -6.178590|    0.057324|    0.000030|
|          56|   -6.758418|   -6.201946|    0.057465|   -0.000001|
|          57|   -6.784557|   -6.228208|    0.057566|   -0.000026|
|          58|   -6.811986|   -6.256235|    0.057674|   -0.000019|
|          59|   -6.841586|   -6.287105|    0.057820|    0.000005|
|          60|   -6.872507|   -6.319610|    0.057981|    0.000013|
|          61|   -6.901825|   -6.350746|    0.058122|   -0.000001|
|          62|   -6.929026|   -6.380311|    0.058231|   -0.000017|
|          63|   -6.954780|   -6.409110|    0.058330|   -0.000019|
|          64|   -6.980627|   -6.438422|    0.058440|   -0.000009|
|          65|   -7.007684|   -6.469088|    0.058563|   -0.000003|
|          66|   -7.034619|   -6.499811|    0.058681|   -0.000007|
|          67|   -7.061193|   -6.530512|    0.058780|   -0.000015|
|          68|   -7.087840|   -6.561375|    0.058866|   -0.000017|
|          69|   -7.113690|   -6.590991|    0.058953|   -0.000015|
|          70|   -7.139829|   -6.620580|    0.059047|   -0.000015|
|          71|   -7.166660|   -6.651102|    0.059142|   -0.000017|
|          72|   -7.192705|   -6.681259|    0.059227|   -0.000020|
|          73|   -7.218793|   -6.711798|    0.059301|   -0.000021|
|          74|   -7.245442|   -6.742937|    0.059370|   -0.000021|
|          75|   -7.271007|   -6.772818|    0.059440|   -0.000022|
|          76|   -7.295028|   -6.801270|    0.059512|   -0.000025|
|          77|   -7.318274|   -6.829259|    0.059578|   -0.000027|
|          78|   -7.341534|   -6.857410|    0.059636|   -0.000028|
|          79|   -7.365312|   -6.886064|    0.059689|   -0.000027|
|          80|   -7.389198|   -6.914676|    0.059740|   -0.000028|
|          81|   -7.412447|   -6.942456|    0.059792|   -0.000030|
|          82|   -7.434910|   -6.969345|    0.059841|   -0.000031|
|          83|   -7.456909|   -6.995717|    0.059887|   -0.000032|
|          84|   -7.478755|   -7.021835|    0.059928|   -0.000033|
|          85|   -7.500468|   -7.047662|    0.059968|   -0.000033|
|          86|   -7.521866|   -7.073023|    0.060008|   -0.000034|
|          87|   -7.542864|   -7.097916|    0.060047|   -0.000035|
|          88|   -7.563493|   -7.122410|    0.060084|   -0.000036|
|          89|   -7.583764|   -7.146465|    0.060119|   -0.000037|
|          90|   -7.603642|   -7.170029|    0.060152|   -0.000037|
|          91|   -7.623001|   -7.192991|    0.060185|   -0.000038|
|          92|   -7.641743|   -7.215299|    0.060217|   -0.000039|
|          93|   -7.659916|   -7.237069|    0.060247|   -0.000039|
|          94|   -7.677535|   -7.258271|    0.060276|   -0.000040|
|          95|   -7.694569|   -7.278792|    0.060304|   -0.000041|
|          96|   -7.711113|   -7.298787|    0.060330|   -0.000041|
|          97|   -7.727321|   -7.318536|    0.060355|   -0.000042|
|          98|   -7.743274|   -7.338164|    0.060379|   -0.000043|
|          99|   -7.758955|   -7.357604|    0.060402|   -0.000043|
|         100|   -7.774292|   -7.376671|    0.060424|   -0.000043|
|         101|   -7.789235|   -7.395236|    0.060445|   -0.000044|
|         102|   -7.803812|   -7.413320|    0.060465|   -0.000044|
|         103|   -7.818090|   -7.431015|    0.060484|   -0.000045|
|         104|   -7.832116|   -7.448378|    0.060502|   -0.000045|
|         105|   -7.845895|   -7.465400|    0.060520|   -0.000046|
|         106|   -7.859411|   -7.482050|    0.060537|   -0.000046|
|         107|   -7.872663|   -7.498308|    0.060553|   -0.000046|
|         108|   -7.885667|   -7.514177|    0.060569|   -0.000047|
|         109|   -7.898446|   -7.529666|    0.060584|   -0.000047|
|         110|   -7.911017|   -7.544786|    0.060598|   -0.000047|
|         111|   -7.923384|   -7.559544|    0.060612|   -0.000048|
|         112|   -7.935551|   -7.573945|    0.060626|   -0.000048|
|         113|   -7.947524|   -7.587983|    0.060638|   -0.000048|
|         114|   -7.959312|   -7.601645|    0.060651|   -0.000048|
|         115|   -7.970924|   -7.614926|    0.060662|   -0.000049|
|         116|   -7.982368|   -7.627837|    0.060674|   -0.000049|
|         117|   -7.993645|   -7.640392|    0.060685|   -0.000049|
|         118|   -8.004755|   -7.652602|    0.060695|   -0.000049|
|         119|   -8.015701|   -7.664483|    0.060706|   -0.000050|
|         120|   -8.026499|   -7.676065|    0.060716|   -0.000050|
|         121|   -8.037166|   -7.687390|    0.060726|   -0.000050|
|         122|   -8.047723|   -7.698502|    0.060735|   -0.000050|
|         123|   -8.058183|   -7.709430|    0.060744|   -0.000050|
|         124|   -8.068551|   -7.720185|    0.060753|   -0.000050|
|         125|   -8.078827|   -7.730764|    0.060762|   -0.000051|
|         126|   -8.089008|   -7.741158|    0.060770|   -0.000051|
|         127|   -8.099093|   -7.751364|    0.060778|   -0.000051|
|         128|   -8.109083|   -7.761385|    0.060786|   -0.000051|
|         129|   -8.118977|   -7.771226|    0.060794|   -0.000051|
|         130|   -8.128775|   -7.780891|    0.060802|   -0.000051|
|         131|   -8.138472|   -7.790382|    0.060809|   -0.000051|
|         132|   -8.148062|   -7.799702|    0.060816|   -0.000051|
|         133|   -8.157543|   -7.808854|    0.060823|   -0.000051|
|         134|   -8.166910|   -7.817845|    0.060830|   -0.000051|
|         135|   -8.176163|   -7.826679|    0.060837|   -0.000051|
|         136|   -8.185298|   -7.835365|    0.060844|   -0.000052|
|         137|   -8.194311|   -7.843906|    0.060850|   -0.000052|
|         138|   -8.203198|   -7.852310|    0.060857|   -0.000052|
|         139|   -8.211957|   -7.860583|    0.060863|   -0.000052|
|         140|   -8.220587|   -7.868735|    0.060870|   -0.000052|
|         141|   -8.229088|   -7.876778|    0.060876|   -0.000052|
|         142|   -8.237463|   -7.884723|    0.060882|   -0.000052|
|         143|   -8.245714|   -7.892586|    0.060889|   -0.000052|
|         144|   -8.253844|   -7.900379|    0.060895|   -0.000052|
|         145|   -8.261856|   -7.908114|    0.060901|   -0.000052|
|         146|   -8.269752|   -7.915800|    0.060907|   -0.000052|
|         147|   -8.277534|   -7.923446|    0.060913|   -0.000052|
|         148|   -8.285206|   -7.931057|    0.060919|   -0.000052|
|         149|   -8.292767|   -7.938636|    0.060925|   -0.000052|
|         150|   -8.300220|   -7.946186|    0.060931|   -0.000052|
|         151|   -8.307564|   -7.953708|    0.060937|   -0.000052|
|         152|   -8.314800|   -7.961201|    0.060943|   -0.000052|
|         153|   -8.321929|   -7.968667|    0.060949|   -0.000052|
|         154|   -8.328955|   -7.976108|    0.060955|   -0.000052|
|         155|   -8.335880|   -7.983525|    0.060961|   -0.000051|
|         156|   -8.342708|   -7.990923|    0.060966|   -0.000051|
|         157|   -8.349444|   -7.998305|    0.060972|   -0.000051|
|         158|   -8.356094|   -8.005677|    0.060978|   -0.000051|
|         159|   -8.362665|   -8.013043|    0.060984|   -0.000051|
|         160|   -8.369161|   -8.020407|    0.060990|   -0.000051|
|         161|   -8.375591|   -8.027774|    0.060995|   -0.000051|
|         162|   -8.381961|   -8.035150|    0.061001|   -0.000051|
|         163|   -8.388279|   -8.042539|    0.061007|   -0.000051|
|         164|   -8.394551|   -8.049945|    0.061013|   -0.000051|
|         165|   -8.400784|   -8.057373|    0.061018|   -0.000051|
|         166|   -8.406985|   -8.064824|    0.061024|   -0.000051|
|         167|   -8.413159|   -8.072303|    0.061030|   -0.000051|
|         168|   -8.419313|   -8.079811|    0.061035|   -0.000051|
|         169|   -8.425452|   -8.087351|    0.061041|   -0.000051|
|         170|   -8.431581|   -8.094924|    0.061047|   -0.000051|
|         171|   -8.437705|   -8.102532|    0.061052|   -0.000051|
|         172|   -8.443829|   -8.110176|    0.061058|   -0.000051|
|         173|   -8.449958|   -8.117858|    0.061064|   -0.000051|
|         174|   -8.456096|   -8.125579|    0.061069|   -0.000051|
|         175|   -8.462247|   -8.133342|    0.061075|   -0.000050|
|         176|   -8.468416|   -8.141148|    0.061080|   -0.000050|
|         177|   -8.474607|   -8.148998|    0.061086|   -0.000050|
|         178|   -8.480823|   -8.156894|    0.061092|   -0.000050|
|         179|   -8.487068|   -8.164838|    0.061097|   -0.000050|
|         180|   -8.493345|   -8.172831|    0.061103|   -0.000050|
|         181|   -8.499658|   -8.180874|    0.061108|   -0.000050|
|         182|   -8.506010|   -8.188967|    0.061114|   -0.000050|
|         183|   -8.512402|   -8.197112|    0.061119|   -0.000050|
|         184|   -8.518837|   -8.205308|    0.061125|   -0.000050|
|         185|   -8.525318|   -8.213555|    0.061130|   -0.000050|
|         186|   -8.531846|   -8.221854|    0.061136|   -0.000050|
|         187|   -8.538424|   -8.230206|    0.061141|   -0.000050|
|         188|   -8.545053|   -8.238610|    0.061146|   -0.000050|
|         189|   -8.551734|   -8.247063|    0.061152|   -0.000050|
|         190|   -8.558468|   -8.255567|    0.061157|   -0.000050|
|         191|   -8.565258|   -8.264123|    0.061162|   -0.000050|
|         192|   -8.572105|   -8.272731|    0.061168|   -0.000050|
|         193|   -8.579011|   -8.281390|    0.061173|   -0.000049|
|         194|   -8.585976|   -8.290103|    0.061178|   -0.000049|
|         195|   -8.593001|   -8.298866|    0.061183|   -0.000049|
|         196|   -8.600087|   -8.307680|    0.061189|   -0.000049|
|         197|   -8.607235|   -8.316545|    0.061194|   -0.000049|
|         198|   -8.614445|   -8.325462|    0.061199|   -0.000049|
|         199|   -8.621720|   -8.334429|    0.061204|   -0.000049|
|         200|   -8.629059|   -8.343448|    0.061209|   -0.000049|
|         201|   -8.636462|   -8.352516|    0.061214|   -0.000049|
|         202|   -8.643930|   -8.361633|    0.061219|   -0.000049|
|         203|   -8.651463|   -8.370799|    0.061224|   -0.000049|
|         204|   -8.659063|   -8.380014|    0.061229|   -0.000049|
|         205|   -8.666728|   -8.389277|    0.061234|   -0.000049|
|         206|   -8.674460|   -8.398587|    0.061238|   -0.000049|
|         207|   -8.682259|   -8.407946|    0.061243|   -0.000049|
|         208|   -8.690126|   -8.417352|    0.061248|   -0.000049|
|         209|   -8.698059|   -8.426804|    0.061253|   -0.000049|
|         210|   -8.706060|   -8.436304|    0.061257|   -0.000049|
|         211|   -8.714129|   -8.445849|    0.061262|   -0.000049|
|         212|   -8.722266|   -8.455441|    0.061267|   -0.000049|
|         213|   -8.730471|   -8.465079|    0.061271|   -0.000049|
|         214|   -8.738745|   -8.474763|    0.061276|   -0.000049|
|         215|   -8.747086|   -8.484491|    0.061280|   -0.000049|
|         216|   -8.755496|   -8.494264|    0.061285|   -0.000048|
|         217|   -8.763974|   -8.504081|    0.061289|   -0.000048|
|         218|   -8.772520|   -8.513942|    0.061294|   -0.000048|
|         219|   -8.781134|   -8.523846|    0.061298|   -0.000048|
|         220|   -8.789816|   -8.533792|    0.061302|   -0.000048|
|         221|   -8.798567|   -8.543780|    0.061306|   -0.000048|
|         222|   -8.807385|   -8.553810|    0.061311|   -0.000048|
|         223|   -8.816271|   -8.563880|    0.061315|   -0.000048|
|         224|   -8.825225|   -8.573991|    0.061319|   -0.000048|
|         225|   -8.834246|   -8.584142|    0.061323|   -0.000048|
|         226|   -8.843335|   -8.594332|    0.061327|   -0.000048|
|         227|   -8.852492|   -8.604561|    0.061331|   -0.000048|
|         228|   -8.861715|   -8.614829|    0.061335|   -0.000048|
|         229|   -8.871006|   -8.625135|    0.061339|   -0.000048|
|         230|   -8.880363|   -8.635478|    0.061342|   -0.000048|
|         231|   -8.889787|   -8.645859|    0.061346|   -0.000048|
|         232|   -8.899278|   -8.656275|    0.061350|   -0.000048|
|         233|   -8.908834|   -8.666728|    0.061354|   -0.000048|
|         234|   -8.918457|   -8.677217|    0.061357|   -0.000048|
|         235|   -8.928146|   -8.687740|    0.061361|   -0.000048|
|         236|   -8.937900|   -8.698297|    0.061364|   -0.000048|
|         237|   -8.947719|   -8.708887|    0.061368|   -0.000048|
|         238|   -8.957604|   -8.719511|    0.061371|   -0.000048|
|         239|   -8.967553|   -8.730166|    0.061375|   -0.000048|
|         240|   -8.977566|   -8.740854|    0.061378|   -0.000048|
|         241|   -8.987644|   -8.751571|    0.061381|   -0.000048|
|         242|   -8.997785|   -8.762320|    0.061385|   -0.000048|
|         243|   -9.007990|   -8.773097|    0.061388|   -0.000048|
|         244|   -9.018257|   -8.783903|    0.061391|   -0.000048|
|         245|   -9.028588|   -8.794738|    0.061394|   -0.000048|
|         246|   -9.038981|   -8.805600|    0.061397|   -0.000048|
|         247|   -9.049436|   -8.816489|    0.061400|   -0.000048|
|         248|   -9.059953|   -8.827404|    0.061403|   -0.000048|
|         249|   -9.070531|   -8.838344|    0.061406|   -0.000048|
|         250|   -9.081171|   -8.849309|    0.061409|   -0.000048|
+-----------------------------------------------------------------------+
|        File Writing Summary       |              Filename             |
+-----------------------------------------------------------------------+
|SU2 restart                        |restart_flow.dat                   |
|Paraview                           |flow.vtu                           |
|Paraview surface                   |surface_flow.vtu                   |
|CSV file                           |surface_flow.csv                   |
+-----------------------------------------------------------------------+
+----------------------------------------------------------------+
|  Inner_Iter|    rms[Rho]|   rms[RhoE]|          CL|          CD|
+----------------------------------------------------------------+
|         251|   -9.091870|   -8.860298|    0.061412|   -0.000048|
|         252|   -9.102631|   -8.871311|    0.061415|   -0.000048|
|         253|   -9.113451|   -8.882346|    0.061418|   -0.000048|
|         254|   -9.124330|   -8.893403|    0.061420|   -0.000048|
|         255|   -9.135269|   -8.904482|    0.061423|   -0.000048|
|         256|   -9.146266|   -8.915581|    0.061426|   -0.000048|
|         257|   -9.157322|   -8.926700|    0.061428|   -0.000048|
|         258|   -9.168435|   -8.937838|    0.061431|   -0.000048|
|         259|   -9.179606|   -8.948995|    0.061433|   -0.000048|
|         260|   -9.190834|   -8.960170|    0.061436|   -0.000048|
|         261|   -9.202118|   -8.971361|    0.061438|   -0.000048|
|         262|   -9.213459|   -8.982570|    0.061441|   -0.000048|
|         263|   -9.224855|   -8.993794|    0.061443|   -0.000048|
|         264|   -9.236307|   -9.005033|    0.061445|   -0.000048|
|         265|   -9.247813|   -9.016286|    0.061448|   -0.000048|
|         266|   -9.259373|   -9.027553|    0.061450|   -0.000048|
|         267|   -9.270988|   -9.038833|    0.061452|   -0.000048|
|         268|   -9.282655|   -9.050125|    0.061454|   -0.000047|
|         269|   -9.294376|   -9.061429|    0.061456|   -0.000047|
|         270|   -9.306149|   -9.072744|    0.061458|   -0.000047|
|         271|   -9.317975|   -9.084070|    0.061460|   -0.000047|
|         272|   -9.329851|   -9.095405|    0.061462|   -0.000047|
|         273|   -9.341779|   -9.106750|    0.061464|   -0.000047|
|         274|   -9.353757|   -9.118103|    0.061466|   -0.000047|
|         275|   -9.365785|   -9.129465|    0.061468|   -0.000047|
|         276|   -9.377862|   -9.140834|    0.061470|   -0.000047|
|         277|   -9.389989|   -9.152210|    0.061472|   -0.000047|
|         278|   -9.402164|   -9.163593|    0.061474|   -0.000047|
|         279|   -9.414388|   -9.174981|    0.061475|   -0.000047|
|         280|   -9.426658|   -9.186376|    0.061477|   -0.000047|
|         281|   -9.438976|   -9.197775|    0.061479|   -0.000047|
|         282|   -9.451340|   -9.209178|    0.061480|   -0.000047|
|         283|   -9.463751|   -9.220586|    0.061482|   -0.000047|
|         284|   -9.476206|   -9.231997|    0.061484|   -0.000047|
|         285|   -9.488707|   -9.243411|    0.061485|   -0.000047|
|         286|   -9.501251|   -9.254827|    0.061487|   -0.000047|
|         287|   -9.513840|   -9.266246|    0.061488|   -0.000047|
|         288|   -9.526472|   -9.277667|    0.061490|   -0.000047|
|         289|   -9.539146|   -9.289089|    0.061491|   -0.000047|
|         290|   -9.551863|   -9.300513|    0.061492|   -0.000047|
|         291|   -9.564621|   -9.311937|    0.061494|   -0.000047|
|         292|   -9.577420|   -9.323362|    0.061495|   -0.000047|
|         293|   -9.590259|   -9.334787|    0.061497|   -0.000047|
|         294|   -9.603139|   -9.346212|    0.061498|   -0.000047|
|         295|   -9.616057|   -9.357636|    0.061499|   -0.000047|
|         296|   -9.629014|   -9.369060|    0.061500|   -0.000047|
|         297|   -9.642010|   -9.380483|    0.061501|   -0.000047|
|         298|   -9.655043|   -9.391905|    0.061503|   -0.000047|
|         299|   -9.668112|   -9.403326|    0.061504|   -0.000047|
|         300|   -9.681218|   -9.414745|    0.061505|   -0.000047|
|         301|   -9.694360|   -9.426163|    0.061506|   -0.000047|
|         302|   -9.707536|   -9.437579|    0.061507|   -0.000047|
|         303|   -9.720747|   -9.448994|    0.061508|   -0.000047|
|         304|   -9.733992|   -9.460406|    0.061509|   -0.000047|
|         305|   -9.747270|   -9.471817|    0.061510|   -0.000047|
|         306|   -9.760581|   -9.483225|    0.061511|   -0.000047|
|         307|   -9.773923|   -9.494631|    0.061512|   -0.000047|
|         308|   -9.787297|   -9.506035|    0.061513|   -0.000047|
|         309|   -9.800701|   -9.517437|    0.061514|   -0.000047|
|         310|   -9.814136|   -9.528836|    0.061515|   -0.000047|
|         311|   -9.827599|   -9.540234|    0.061516|   -0.000047|
|         312|   -9.841092|   -9.551628|    0.061517|   -0.000047|
|         313|   -9.854612|   -9.563021|    0.061518|   -0.000047|
|         314|   -9.868160|   -9.574412|    0.061518|   -0.000047|
|         315|   -9.881734|   -9.585800|    0.061519|   -0.000047|
|         316|   -9.895334|   -9.597186|    0.061520|   -0.000047|
|         317|   -9.908960|   -9.608571|    0.061521|   -0.000047|
|         318|   -9.922610|   -9.619953|    0.061521|   -0.000047|
|         319|   -9.936285|   -9.631334|    0.061522|   -0.000047|
|         320|   -9.949982|   -9.642712|    0.061523|   -0.000047|
|         321|   -9.963702|   -9.654089|    0.061524|   -0.000047|
|         322|   -9.977444|   -9.665465|    0.061524|   -0.000047|
|         323|   -9.991207|   -9.676839|    0.061525|   -0.000047|
|         324|  -10.004991|   -9.688212|    0.061526|   -0.000047|
|         325|  -10.018794|   -9.699583|    0.061526|   -0.000047|
|         326|  -10.032617|   -9.710954|    0.061527|   -0.000047|
|         327|  -10.046458|   -9.722323|    0.061527|   -0.000047|
|         328|  -10.060316|   -9.733692|    0.061528|   -0.000047|
|         329|  -10.074192|   -9.745061|    0.061529|   -0.000047|
|         330|  -10.088083|   -9.756428|    0.061529|   -0.000047|
|         331|  -10.101990|   -9.767796|    0.061530|   -0.000047|
|         332|  -10.115912|   -9.779163|    0.061530|   -0.000047|
|         333|  -10.129848|   -9.790530|    0.061531|   -0.000047|
|         334|  -10.143798|   -9.801897|    0.061531|   -0.000047|
|         335|  -10.157760|   -9.813264|    0.061532|   -0.000047|
|         336|  -10.171733|   -9.824632|    0.061532|   -0.000047|
|         337|  -10.185718|   -9.836000|    0.061533|   -0.000047|
|         338|  -10.199714|   -9.847369|    0.061533|   -0.000047|
|         339|  -10.213719|   -9.858739|    0.061534|   -0.000047|
|         340|  -10.227733|   -9.870110|    0.061534|   -0.000047|
|         341|  -10.241755|   -9.881482|    0.061534|   -0.000047|
|         342|  -10.255784|   -9.892855|    0.061535|   -0.000047|
|         343|  -10.269820|   -9.904229|    0.061535|   -0.000047|
|         344|  -10.283862|   -9.915605|    0.061536|   -0.000047|
|         345|  -10.297910|   -9.926982|    0.061536|   -0.000047|
|         346|  -10.311962|   -9.938361|    0.061536|   -0.000047|
|         347|  -10.326017|   -9.949742|    0.061537|   -0.000047|
|         348|  -10.340076|   -9.961124|    0.061537|   -0.000047|
|         349|  -10.354136|   -9.972509|    0.061538|   -0.000047|
|         350|  -10.368198|   -9.983895|    0.061538|   -0.000047|
|         351|  -10.382261|   -9.995284|    0.061538|   -0.000047|
|         352|  -10.396324|  -10.006675|    0.061538|   -0.000047|
|         353|  -10.410386|  -10.018067|    0.061539|   -0.000047|
|         354|  -10.424446|  -10.029463|    0.061539|   -0.000047|
|         355|  -10.438505|  -10.040860|    0.061539|   -0.000047|
|         356|  -10.452560|  -10.052260|    0.061540|   -0.000047|
|         357|  -10.466611|  -10.063662|    0.061540|   -0.000047|
|         358|  -10.480658|  -10.075067|    0.061540|   -0.000047|
|         359|  -10.494699|  -10.086474|    0.061541|   -0.000047|
|         360|  -10.508734|  -10.097883|    0.061541|   -0.000047|
|         361|  -10.522763|  -10.109295|    0.061541|   -0.000047|
|         362|  -10.536784|  -10.120709|    0.061541|   -0.000047|
|         363|  -10.550796|  -10.132125|    0.061542|   -0.000047|
|         364|  -10.564800|  -10.143544|    0.061542|   -0.000047|
|         365|  -10.578794|  -10.154964|    0.061542|   -0.000047|
|         366|  -10.592777|  -10.166387|    0.061542|   -0.000047|
|         367|  -10.606749|  -10.177812|    0.061542|   -0.000047|
|         368|  -10.620709|  -10.189239|    0.061543|   -0.000047|
|         369|  -10.634656|  -10.200668|    0.061543|   -0.000047|
|         370|  -10.648589|  -10.212098|    0.061543|   -0.000047|
|         371|  -10.662509|  -10.223530|    0.061543|   -0.000047|
|         372|  -10.676413|  -10.234964|    0.061543|   -0.000047|
|         373|  -10.690302|  -10.246399|    0.061544|   -0.000047|
|         374|  -10.704174|  -10.257835|    0.061544|   -0.000047|
|         375|  -10.718029|  -10.269273|    0.061544|   -0.000047|
|         376|  -10.731866|  -10.280711|    0.061544|   -0.000047|
|         377|  -10.745685|  -10.292150|    0.061544|   -0.000047|
|         378|  -10.759484|  -10.303589|    0.061545|   -0.000047|
|         379|  -10.773263|  -10.315029|    0.061545|   -0.000047|
|         380|  -10.787021|  -10.326469|    0.061545|   -0.000047|
|         381|  -10.800758|  -10.337909|    0.061545|   -0.000047|
|         382|  -10.814473|  -10.349348|    0.061545|   -0.000047|
|         383|  -10.828165|  -10.360787|    0.061545|   -0.000047|
|         384|  -10.841833|  -10.372225|    0.061545|   -0.000047|
|         385|  -10.855478|  -10.383662|    0.061546|   -0.000047|
|         386|  -10.869097|  -10.395098|    0.061546|   -0.000047|
|         387|  -10.882691|  -10.406531|    0.061546|   -0.000047|
|         388|  -10.896258|  -10.417963|    0.061546|   -0.000047|
|         389|  -10.909799|  -10.429393|    0.061546|   -0.000047|
|         390|  -10.923312|  -10.440820|    0.061546|   -0.000047|
|         391|  -10.936797|  -10.452244|    0.061546|   -0.000047|
|         392|  -10.950253|  -10.463665|    0.061546|   -0.000047|
|         393|  -10.963680|  -10.475082|    0.061547|   -0.000047|
|         394|  -10.977076|  -10.486496|    0.061547|   -0.000047|
|         395|  -10.990442|  -10.497905|    0.061547|   -0.000047|
|         396|  -11.003777|  -10.509310|    0.061547|   -0.000047|
|         397|  -11.017079|  -10.520709|    0.061547|   -0.000047|
|         398|  -11.030350|  -10.532104|    0.061547|   -0.000047|
|         399|  -11.043587|  -10.543493|    0.061547|   -0.000047|
|         400|  -11.056790|  -10.554875|    0.061547|   -0.000047|
|         401|  -11.069960|  -10.566251|    0.061547|   -0.000047|
|         402|  -11.083094|  -10.577620|    0.061547|   -0.000047|
|         403|  -11.096194|  -10.588981|    0.061547|   -0.000047|
|         404|  -11.109258|  -10.600336|    0.061548|   -0.000047|
|         405|  -11.122285|  -10.611682|    0.061548|   -0.000047|
|         406|  -11.135275|  -10.623018|    0.061548|   -0.000047|
|         407|  -11.148228|  -10.634347|    0.061548|   -0.000047|
|         408|  -11.161144|  -10.645666|    0.061548|   -0.000047|
|         409|  -11.174021|  -10.656976|    0.061548|   -0.000047|
|         410|  -11.186860|  -10.668275|    0.061548|   -0.000047|
|         411|  -11.199659|  -10.679563|    0.061548|   -0.000047|
|         412|  -11.212420|  -10.690841|    0.061548|   -0.000047|
|         413|  -11.225140|  -10.702107|    0.061548|   -0.000047|
|         414|  -11.237820|  -10.713360|    0.061548|   -0.000047|
|         415|  -11.250459|  -10.724602|    0.061548|   -0.000047|
|         416|  -11.263057|  -10.735830|    0.061548|   -0.000047|
|         417|  -11.275614|  -10.747046|    0.061548|   -0.000047|
|         418|  -11.288129|  -10.758248|    0.061549|   -0.000047|
|         419|  -11.300602|  -10.769435|    0.061549|   -0.000047|
|         420|  -11.313033|  -10.780610|    0.061549|   -0.000047|
|         421|  -11.325422|  -10.791768|    0.061549|   -0.000047|
|         422|  -11.337767|  -10.802911|    0.061549|   -0.000047|
|         423|  -11.350071|  -10.814038|    0.061549|   -0.000047|
|         424|  -11.362330|  -10.825150|    0.061549|   -0.000047|
|         425|  -11.374545|  -10.836244|    0.061549|   -0.000047|
|         426|  -11.386720|  -10.847324|    0.061549|   -0.000047|
|         427|  -11.398848|  -10.858384|    0.061549|   -0.000047|
|         428|  -11.410933|  -10.869427|    0.061549|   -0.000047|
|         429|  -11.422974|  -10.880453|    0.061549|   -0.000047|
|         430|  -11.434972|  -10.891461|    0.061549|   -0.000047|
|         431|  -11.446924|  -10.902448|    0.061549|   -0.000047|
|         432|  -11.458833|  -10.913418|    0.061549|   -0.000047|
|         433|  -11.470697|  -10.924368|    0.061549|   -0.000047|
|         434|  -11.482518|  -10.935299|    0.061549|   -0.000047|
|         435|  -11.494294|  -10.946210|    0.061549|   -0.000047|
|         436|  -11.506026|  -10.957099|    0.061549|   -0.000047|
|         437|  -11.517713|  -10.967969|    0.061549|   -0.000047|
|         438|  -11.529357|  -10.978818|    0.061549|   -0.000047|
|         439|  -11.540956|  -10.989646|    0.061549|   -0.000047|
|         440|  -11.552512|  -11.000453|    0.061550|   -0.000047|
|         441|  -11.564024|  -11.011239|    0.061550|   -0.000047|
|         442|  -11.575494|  -11.022003|    0.061550|   -0.000047|
|         443|  -11.586916|  -11.032742|    0.061550|   -0.000047|
|         444|  -11.598301|  -11.043465|    0.061550|   -0.000047|
|         445|  -11.609637|  -11.054161|    0.061550|   -0.000047|
|         446|  -11.620934|  -11.064836|    0.061550|   -0.000047|
|         447|  -11.632186|  -11.075488|    0.061550|   -0.000047|
|         448|  -11.643399|  -11.086120|    0.061550|   -0.000047|
|         449|  -11.654568|  -11.096727|    0.061550|   -0.000047|
|         450|  -11.665693|  -11.107310|    0.061550|   -0.000047|
|         451|  -11.676779|  -11.117871|    0.061550|   -0.000047|
|         452|  -11.687824|  -11.128409|    0.061550|   -0.000047|
|         453|  -11.698829|  -11.138926|    0.061550|   -0.000047|
|         454|  -11.709790|  -11.149415|    0.061550|   -0.000047|
|         455|  -11.720716|  -11.159888|    0.061550|   -0.000047|
|         456|  -11.731597|  -11.170330|    0.061550|   -0.000047|
|         457|  -11.742443|  -11.180755|    0.061550|   -0.000047|
|         458|  -11.753249|  -11.191155|    0.061550|   -0.000047|
|         459|  -11.764016|  -11.201531|    0.061550|   -0.000047|
|         460|  -11.774745|  -11.211885|    0.061550|   -0.000047|
|         461|  -11.785438|  -11.222217|    0.061550|   -0.000047|
|         462|  -11.796093|  -11.232525|    0.061550|   -0.000047|
|         463|  -11.806712|  -11.242811|    0.061550|   -0.000047|
|         464|  -11.817295|  -11.253075|    0.061550|   -0.000047|
|         465|  -11.827841|  -11.263314|    0.061550|   -0.000047|
|         466|  -11.838351|  -11.273532|    0.061550|   -0.000047|
|         467|  -11.848828|  -11.283727|    0.061550|   -0.000047|
|         468|  -11.859273|  -11.293903|    0.061550|   -0.000047|
|         469|  -11.869683|  -11.304054|    0.061550|   -0.000047|
|         470|  -11.880059|  -11.314186|    0.061550|   -0.000047|
|         471|  -11.890402|  -11.324293|    0.061550|   -0.000047|
|         472|  -11.900716|  -11.334381|    0.061550|   -0.000047|
|         473|  -11.910996|  -11.344449|    0.061550|   -0.000047|
|         474|  -11.921249|  -11.354497|    0.061550|   -0.000047|
|         475|  -11.931471|  -11.364525|    0.061550|   -0.000047|
|         476|  -11.941662|  -11.374530|    0.061550|   -0.000047|
|         477|  -11.951821|  -11.384513|    0.061550|   -0.000047|
|         478|  -11.961955|  -11.394480|    0.061550|   -0.000047|
|         479|  -11.972063|  -11.404430|    0.061550|   -0.000047|
|         480|  -11.982139|  -11.414355|    0.061550|   -0.000047|
|         481|  -11.992194|  -11.424268|    0.061550|   -0.000047|
|         482|  -12.002219|  -11.434158|    0.061550|   -0.000047|
|         483|  -12.012215|  -11.444027|    0.061550|   -0.000047|
|         484|  -12.022191|  -11.453883|    0.061550|   -0.000047|
|         485|  -12.032143|  -11.463720|    0.061550|   -0.000047|
|         486|  -12.042069|  -11.473541|    0.061550|   -0.000047|
|         487|  -12.051973|  -11.483345|    0.061550|   -0.000047|
|         488|  -12.061854|  -11.493131|    0.061550|   -0.000047|
|         489|  -12.071708|  -11.502899|    0.061551|   -0.000047|
|         490|  -12.081552|  -11.512660|    0.061551|   -0.000047|
|         491|  -12.091367|  -11.522400|    0.061551|   -0.000047|
|         492|  -12.101160|  -11.532120|    0.061551|   -0.000047|
|         493|  -12.110930|  -11.541825|    0.061551|   -0.000047|
|         494|  -12.120691|  -11.551525|    0.061551|   -0.000047|
|         495|  -12.130431|  -11.561209|    0.061551|   -0.000047|
|         496|  -12.140148|  -11.570874|    0.061551|   -0.000047|
|         497|  -12.149849|  -11.580526|    0.061551|   -0.000047|
|         498|  -12.159532|  -11.590167|    0.061551|   -0.000047|
|         499|  -12.169202|  -11.599798|    0.061551|   -0.000047|
|         500|  -12.178853|  -11.609414|    0.061551|   -0.000047|
+-----------------------------------------------------------------------+
|        File Writing Summary       |              Filename             |
+-----------------------------------------------------------------------+
|SU2 restart                        |restart_flow.dat                   |
|Paraview                           |flow.vtu                           |
|Paraview surface                   |surface_flow.vtu                   |
|CSV file                           |surface_flow.csv                   |
+-----------------------------------------------------------------------+
+----------------------------------------------------------------+
|  Inner_Iter|    rms[Rho]|   rms[RhoE]|          CL|          CD|
+----------------------------------------------------------------+
|         501|  -12.188486|  -11.619016|    0.061551|   -0.000047|
|         502|  -12.198106|  -11.628607|    0.061551|   -0.000047|
|         503|  -12.207716|  -11.638193|    0.061551|   -0.000047|
|         504|  -12.217302|  -11.647758|    0.061551|   -0.000047|
|         505|  -12.226884|  -11.657320|    0.061551|   -0.000047|
|         506|  -12.236454|  -11.666877|    0.061551|   -0.000047|
|         507|  -12.246003|  -11.676416|    0.061551|   -0.000047|
|         508|  -12.255543|  -11.685947|    0.061551|   -0.000047|
|         509|  -12.265067|  -11.695464|    0.061551|   -0.000047|
|         510|  -12.274579|  -11.704973|    0.061551|   -0.000047|
|         511|  -12.284097|  -11.714489|    0.061551|   -0.000047|
|         512|  -12.293590|  -11.723983|    0.061551|   -0.000047|
|         513|  -12.303073|  -11.733470|    0.061551|   -0.000047|
|         514|  -12.312547|  -11.742950|    0.061551|   -0.000047|
|         515|  -12.322015|  -11.752429|    0.061551|   -0.000047|
|         516|  -12.331475|  -11.761894|    0.061551|   -0.000047|
|         517|  -12.340930|  -11.771361|    0.061551|   -0.000047|
|         518|  -12.350364|  -11.780808|    0.061551|   -0.000047|
|         519|  -12.359800|  -11.790261|    0.061551|   -0.000047|
|         520|  -12.369220|  -11.799700|    0.061551|   -0.000047|
|         521|  -12.378647|  -11.809144|    0.061551|   -0.000047|
|         522|  -12.388057|  -11.818574|    0.061551|   -0.000047|
|         523|  -12.397463|  -11.828001|    0.061551|   -0.000047|
|         524|  -12.406863|  -11.837425|    0.061551|   -0.000047|
|         525|  -12.416258|  -11.846844|    0.061551|   -0.000047|
|         526|  -12.425660|  -11.856273|    0.061551|   -0.000047|
|         527|  -12.435051|  -11.865690|    0.061551|   -0.000047|
|         528|  -12.444432|  -11.875095|    0.061551|   -0.000047|
|         529|  -12.453804|  -11.884498|    0.061551|   -0.000047|
|         530|  -12.463177|  -11.893903|    0.061551|   -0.000047|
|         531|  -12.472545|  -11.903300|    0.061551|   -0.000047|
|         532|  -12.481915|  -11.912699|    0.061551|   -0.000047|
|         533|  -12.491280|  -11.922101|    0.061551|   -0.000047|
|         534|  -12.500642|  -11.931500|    0.061551|   -0.000047|
|         535|  -12.510007|  -11.940894|    0.061551|   -0.000047|
|         536|  -12.519363|  -11.950287|    0.061551|   -0.000047|
|         537|  -12.528710|  -11.959671|    0.061551|   -0.000047|
|         538|  -12.538071|  -11.969061|    0.061551|   -0.000047|
|         539|  -12.547417|  -11.978449|    0.061551|   -0.000047|
|         540|  -12.556787|  -11.987849|    0.061551|   -0.000047|
|         541|  -12.566132|  -11.997229|    0.061551|   -0.000047|
|         542|  -12.575493|  -12.006630|    0.061551|   -0.000047|
|         543|  -12.584841|  -12.016015|    0.061551|   -0.000047|
|         544|  -12.594191|  -12.025409|    0.061551|   -0.000047|
|         545|  -12.603530|  -12.034783|    0.061551|   -0.000047|
|         546|  -12.612888|  -12.044184|    0.061551|   -0.000047|
|         547|  -12.622229|  -12.053563|    0.061551|   -0.000047|
|         548|  -12.631596|  -12.062971|    0.061551|   -0.000047|
|         549|  -12.640945|  -12.072354|    0.061551|   -0.000047|
|         550|  -12.650298|  -12.081755|    0.061551|   -0.000047|
|         551|  -12.659650|  -12.091141|    0.061551|   -0.000047|
|         552|  -12.669008|  -12.100541|    0.061551|   -0.000047|
|         553|  -12.678385|  -12.109962|    0.061551|   -0.000047|
|         554|  -12.687742|  -12.119354|    0.061551|   -0.000047|
|         555|  -12.697107|  -12.128757|    0.061551|   -0.000047|
|         556|  -12.706456|  -12.138156|    0.061551|   -0.000047|
|         557|  -12.715826|  -12.147556|    0.061551|   -0.000047|
|         558|  -12.725225|  -12.156996|    0.061551|   -0.000047|
|         559|  -12.734588|  -12.166402|    0.061551|   -0.000047|
|         560|  -12.743963|  -12.175817|    0.061551|   -0.000047|
|         561|  -12.753346|  -12.185237|    0.061551|   -0.000047|
|         562|  -12.762715|  -12.194645|    0.061551|   -0.000047|
|         563|  -12.772118|  -12.204087|    0.061551|   -0.000047|
|         564|  -12.781502|  -12.213506|    0.061551|   -0.000047|
|         565|  -12.790877|  -12.222932|    0.061551|   -0.000047|
|         566|  -12.800280|  -12.232363|    0.061551|   -0.000047|
|         567|  -12.809676|  -12.241801|    0.061551|   -0.000047|
|         568|  -12.819099|  -12.251270|    0.061551|   -0.000047|
|         569|  -12.828508|  -12.260721|    0.061551|   -0.000047|
|         570|  -12.837916|  -12.270159|    0.061551|   -0.000047|
|         571|  -12.847328|  -12.279616|    0.061551|   -0.000047|
|         572|  -12.856743|  -12.289067|    0.061551|   -0.000047|
|         573|  -12.866164|  -12.298525|    0.061551|   -0.000047|
|         574|  -12.875603|  -12.307999|    0.061551|   -0.000047|
|         575|  -12.885058|  -12.317484|    0.061551|   -0.000047|
|         576|  -12.894483|  -12.326940|    0.061551|   -0.000047|
|         577|  -12.903910|  -12.336417|    0.061551|   -0.000047|
|         578|  -12.913356|  -12.345894|    0.061551|   -0.000047|
|         579|  -12.922820|  -12.355379|    0.061551|   -0.000047|
|         580|  -12.932275|  -12.364885|    0.061551|   -0.000047|
|         581|  -12.941755|  -12.374385|    0.061551|   -0.000047|
|         582|  -12.951221|  -12.383895|    0.061551|   -0.000047|
|         583|  -12.960702|  -12.393409|    0.061551|   -0.000047|
|         584|  -12.970179|  -12.402906|    0.061551|   -0.000047|
|         585|  -12.979639|  -12.412412|    0.061551|   -0.000047|
|         586|  -12.989117|  -12.421921|    0.061551|   -0.000047|
|         587|  -12.998626|  -12.431463|    0.061551|   -0.000047|
|         588|  -13.008149|  -12.441006|    0.061551|   -0.000047|

----------------------------- Solver Exit -------------------------------
All convergence criteria satisfied.
+-----------------------------------------------------------------------+
|      Convergence Field     |     Value    |   Criterion  |  Converged |
+-----------------------------------------------------------------------+
|                    rms[Rho]|      -13.0081|         < -13|         Yes|
+-----------------------------------------------------------------------+
-------------------------------------------------------------------------
+-----------------------------------------------------------------------+
|        File Writing Summary       |              Filename             |
+-----------------------------------------------------------------------+
|SU2 restart                        |restart_flow.dat                   |
|Paraview                           |flow.vtu                           |
|Paraview surface                   |surface_flow.vtu                   |
|CSV file                           |surface_flow.csv                   |
+-----------------------------------------------------------------------+

------------------------- Solver Postprocessing -------------------------
Deleted CNumerics container.
Deleted CIntegration container.
Deleted CSolver container.
Deleted CIteration container.
Deleted CInterpolator container.
Deleted CInterface container.
Deleted CGeometry container.
Deleted CFreeFormDefBox class.
Deleted CSurfaceMovement class.
Deleted CVolumetricMovement class.
Deleted CConfig container.
Deleted nInst container.
Deleted COutput class.
-------------------------------------------------------------------------

------------------------- Exit Success (SU2_CFD) ------------------------

