
-------------------------------------------------------------------------
|    ___ _   _ ___                                                      |
|   / __| | | |_  )   Release 7.0.5 "Blackbird"                         |
|   \__ \ |_| |/ /                                                      |
|   |___/\___//___|   Suite (Computational Fluid Dynamics Code)         |
|                                                                       |
-------------------------------------------------------------------------
| SU2 Project Website: https://su2code.github.io                        |
|                                                                       |
| The SU2 Project is maintained by the SU2 Foundation                   |
| (http://su2foundation.org)                                            |
-------------------------------------------------------------------------
| Copyright 2012-2020, SU2 Contributors                                 |
|                                                                       |
| SU2 is free software; you can redistribute it and/or                  |
| modify it under the terms of the GNU Lesser General Public            |
| License as published by the Free Software Foundation; either          |
| version 2.1 of the License, or (at your option) any later version.    |
|                                                                       |
| SU2 is distributed in the hope that it will be useful,                |
| but WITHOUT ANY WARRANTY; without even the implied warranty of        |
| MERCHANTABILITY or FITNESS FOR A PARTICULAR PURPOSE. See the GNU      |
| Lesser General Public License for more details.                       |
|                                                                       |
| You should have received a copy of the GNU Lesser General Public      |
| License along with SU2. If not, see <http://www.gnu.org/licenses/>.   |
-------------------------------------------------------------------------

Parsing config file for zone 0

----------------- Physical Case Definition ( Zone 0 ) -------------------
Compressible Euler equations.
Mach number: 0.1.
Angle of attack (AoA): 0.5 deg, and angle of sideslip (AoS): 0 deg.
No restart solution, use the values at infinity (freestream).
Non-Dimensional simulation (P=1.0, Rho=1.0, T=1.0 at the farfield).
The reference area is 1 m^2.
The semi-span will be computed using the max y(3D) value.
The reference length is 1 m.
Reference origin for moment evaluation is (0.25, 0, 0).
Surface(s) where the force coefficients are evaluated: airfoil.

Surface(s) plotted in the output file: airfoil.
Surface(s) affected by the design variables: airfoil.
Input mesh file name: mesh_NACA0012_inv_deform.su2

--------------- Space Numerical Integration ( Zone 0 ) ------------------
Jameson-Schmidt-Turkel scheme (2nd order in space) for the flow inviscid terms.
JST viscous coefficients (2nd & 4th): 0.5, 0.02.
The method includes a grid stretching correction (p = 0.3).
Gradient for upwind reconstruction: Green-Gauss.
Gradient for viscous and source terms: Green-Gauss.

--------------- Time Numerical Integration  ( Zone 0 ) ------------------
Local time stepping (steady state simulation).
Euler implicit method for the flow equations.
FGMRES is used for solving the linear system.
Using a LU-SGS preconditioning.
Convergence criteria of the linear solver: 0.0001.
Max number of linear iterations: 2.
V Multigrid Cycle, with 2 multigrid levels.
Damping factor for the residual restriction: 1.
Damping factor for the correction prolongation: 1.
No CFL adaptation.
+-------------------------------------------+
|  MG Level| Presmooth|PostSmooth|CorrectSmo|
+-------------------------------------------+
|         0|         1|         0|         0|
|         1|         2|         0|         0|
|         2|         3|         0|         0|
+-------------------------------------------+
Courant-Friedrichs-Lewy number:       10

------------------ Convergence Criteria  ( Zone 0 ) ---------------------
Maximum number of solver subiterations: 1000.
Begin convergence monitoring at iteration 10.
Residual minimum value: 1e-13.
Cauchy series min. value: 1e-06.
Number of Cauchy elements: 100.
Begin windowed time average at iteration 0.

-------------------- Output Information ( Zone 0 ) ----------------------
Writing solution files every 250 iterations.
Writing the convergence history file every 1 inner iterations.
Writing the screen convergence history every 1 inner iterations.
The tabular file format is CSV (.csv).
Convergence history file name: history_direct.
Forces breakdown file name: forces_breakdown.dat.
Surface file name: surface_flow.
Volume file name: flow.
Restart file name: restart_flow.dat.

------------- Config File Boundary Information ( Zone 0 ) ---------------
+-----------------------------------------------------------------------+
|                        Marker Type|                        Marker Name|
+-----------------------------------------------------------------------+
|                         Euler wall|                            airfoil|
+-----------------------------------------------------------------------+
|                          Far-field|                           farfield|
+-----------------------------------------------------------------------+

-------------------- Output Preprocessing ( Zone 0 ) --------------------
Screen output fields: INNER_ITER, RMS_DENSITY, RMS_ENERGY, LIFT, DRAG
History output group(s): ITER, RMS_RES, AERO_COEFF
Convergence field(s): RMS_DENSITY
Warning: No (valid) fields chosen for time convergence monitoring. Time convergence monitoring inactive.
Volume output fields: COORDINATES, SOLUTION, PRIMITIVE

------------------- Geometry Preprocessing ( Zone 0 ) -------------------
Two dimensional problem.
5233 grid points.
10216 volume elements.
2 surface markers.
200 boundary elements in index 0 (Marker = airfoil).
50 boundary elements in index 1 (Marker = farfield).
10216 triangles.
Setting point connectivity.
Renumbering points (Reverse Cuthill McKee Ordering).
Recomputing point connectivity.
Setting element connectivity.
Checking the numerical grid orientation.
Identifying edges and vertices.
Computing centers of gravity.
Setting the control volume structure.
Area of the computational grid: 1253.25.
Searching for the closest normal neighbors to the surfaces.
Storing a mapping from global to local point index.
Compute the surface curvature.
Max K: 7835.1. Mean K: 34.8203. Standard deviation K: 494.448.
Checking for periodicity.
Computing mesh quality statistics for the dual control volumes.
+--------------------------------------------------------------+
|           Mesh Quality Metric|        Minimum|        Maximum|
+--------------------------------------------------------------+
|    Orthogonality Angle (deg.)|        62.6722|        89.7085|
|     CV Face Area Aspect Ratio|              1|        7.18345|
|           CV Sub-Volume Ratio|        1.00285|        6.47829|
+--------------------------------------------------------------+
Setting the multigrid structure.
+-------------------------------------------+
|  MG Level|       CVs|Aggl. Rate|       CFL|
+-------------------------------------------+
|         0|      5233|    1/1.00|        10|
|         1|      1533|    1/3.41|   8.11871|
|         2|       443|    1/3.46|    6.5465|
+-------------------------------------------+
Finding max control volume width.
Wetted area = 2.03922 m.
Area projection in the x-plane = 0.119982 m, y-plane = 0.999845 m.
Max. coordinate in the x-direction = 1 m, y-direction = 0.0600008 m.
Min. coordinate in the x-direction = 0 m, y-direction = -0.060013 m.
Checking if Euler & Symmetry markers are straight/plane:
Boundary marker airfoil is NOT a single straight.
Computing wall distances.

-------------------- Solver Preprocessing ( Zone 0 ) --------------------
Inviscid flow: Computing density based on free-stream
temperature and pressure using the ideal gas law.
Force coefficients computed using free-stream values.

-- Models:
+------------------------------------------------------------------------------+
|          Viscosity Model|        Conductivity Model|              Fluid Model|
+------------------------------------------------------------------------------+
|                        -|                         -|             STANDARD_AIR|
+------------------------------------------------------------------------------+
-- Fluid properties:
+------------------------------------------------------------------------------+
|                  Name|    Dim. value|    Ref. value|      Unit|Non-dim. value|
+------------------------------------------------------------------------------+
|          Gas Constant|       287.058|       287.058|  N.m/kg.K|             1|
|      Spec. Heat Ratio|             -|             -|         -|           1.4|
+------------------------------------------------------------------------------+
-- Initial and free-stream conditions:
+------------------------------------------------------------------------------+
|                  Name|    Dim. value|    Ref. value|      Unit|Non-dim. value|
+------------------------------------------------------------------------------+
|       Static Pressure|        101325|        101325|        Pa|             1|
|               Density|       1.22498|       1.22498|    kg/m^3|             1|
|           Temperature|        288.15|        288.15|         K|             1|
|          Total Energy|        207368|       82715.8|   m^2/s^2|         2.507|
|            Velocity-X|       34.0284|       287.603|       m/s|      0.118317|
|            Velocity-Y|      0.296961|       287.603|       m/s|    0.00103254|
|    Velocity Magnitude|       34.0297|       287.603|       m/s|      0.118322|
+------------------------------------------------------------------------------+
|           Mach Number|             -|             -|         -|           0.1|
+------------------------------------------------------------------------------+
Initialize Jacobian structure (Euler). MG level: 0.
Initialize Jacobian structure (Euler). MG level: 1.
Initialize Jacobian structure (Euler). MG level: 2.

------------------- Numerics Preprocessing ( Zone 0 ) -------------------

----------------- Integration Preprocessing ( Zone 0 ) ------------------

------------------- Iteration Preprocessing ( Zone 0 ) ------------------
Euler/Navier-Stokes/RANS fluid iteration.

------------------------------ Begin Solver -----------------------------

Simulation Run using the Single-zone Driver
+----------------------------------------------------------------+
|  Inner_Iter|    rms[Rho]|   rms[RhoE]|          CL|          CD|
+----------------------------------------------------------------+
|           0|   -4.493769|   -3.948833|    0.374197|    1.372025|
|           1|   -4.619341|   -4.068430|    0.240432|   -0.138170|
|           2|   -4.729430|   -4.180781|   -0.080636|   -0.250204|
|           3|   -4.705327|   -4.150682|   -0.175232|    0.061071|
|           4|   -4.651809|   -4.104710|    0.031823|    0.184323|
|           5|   -4.791107|   -4.239633|    0.188622|    0.031326|
|           6|   -4.755709|   -4.208148|    0.061360|   -0.087658|
|           7|   -4.964890|   -4.414094|   -0.096869|   -0.015939|
|           8|   -4.949094|   -4.401563|   -0.025424|    0.080211|
|           9|   -5.161857|   -4.612118|    0.115595|    0.031513|
|          10|   -5.207994|   -4.659332|    0.091020|   -0.049488|
|          11|   -5.314540|   -4.765546|   -0.015631|   -0.017573|
|          12|   -5.436443|   -4.888597|   -0.016260|    0.041381|
|          13|   -5.462398|   -4.912431|    0.060590|    0.017397|
|          14|   -5.614335|   -5.067370|    0.080299|   -0.027113|
|          15|   -5.647387|   -5.095848|    0.032943|   -0.010263|
|          16|   -5.725212|   -5.179966|    0.008211|    0.022693|
|          17|   -5.857299|   -5.305162|    0.036460|    0.010673|
|          18|   -5.865481|   -5.320002|    0.062518|   -0.013837|
|          19|   -6.033795|   -5.482476|    0.049775|   -0.006265|
|          20|   -5.971355|   -5.426436|    0.029316|    0.010734|
|          21|   -6.183437|   -5.633825|    0.034280|    0.005725|
|          22|   -6.075154|   -5.530425|    0.049799|   -0.005997|
|          23|   -6.272887|   -5.726825|    0.050587|   -0.003215|
|          24|   -6.166156|   -5.620766|    0.041466|    0.004493|
|          25|   -6.329426|   -5.785240|    0.039354|    0.002840|
|          26|   -6.291965|   -5.748367|    0.045327|   -0.002503|
|          27|   -6.350026|   -5.809479|    0.048960|   -0.001803|
|          28|   -6.427384|   -5.885109|    0.047005|    0.001869|
|          29|   -6.426909|   -5.884311|    0.044534|    0.001692|
|          30|   -6.494124|   -5.955794|    0.045477|   -0.000991|
|          31|   -6.484789|   -5.946883|    0.048010|   -0.001299|
|          32|   -6.526199|   -5.989909|    0.049087|    0.000563|
|          33|   -6.569784|   -6.033471|    0.048421|    0.001209|
|          34|   -6.561036|   -6.024041|    0.047647|   -0.000014|
|          35|   -6.575789|   -6.040367|    0.048110|   -0.000867|
|          36|   -6.581023|   -6.045626|    0.049304|   -0.000278|
|          37|   -6.595449|   -6.061710|    0.050032|    0.000552|
|          38|   -6.608539|   -6.075744|    0.049871|    0.000408|
|          39|   -6.611932|   -6.079156|    0.049418|   -0.000287|
|          40|   -6.619623|   -6.087083|    0.049469|   -0.000479|
|          41|   -6.627413|   -6.095760|    0.050033|   -0.000088|
|          42|   -6.640983|   -6.111155|    0.050548|    0.000183|
|          43|   -6.655079|   -6.126440|    0.050552|   -0.000023|
|          44|   -6.665530|   -6.137329|    0.050248|   -0.000332|
|          45|   -6.678222|   -6.150975|    0.050140|   -0.000340|
|          46|   -6.690519|   -6.164658|    0.050397|   -0.000153|
|          47|   -6.705968|   -6.181566|    0.050736|   -0.000105|
|          48|   -6.723548|   -6.200002|    0.050813|   -0.000251|
|          49|   -6.737285|   -6.213988|    0.050667|   -0.000369|
|          50|   -6.750054|   -6.227568|    0.050586|   -0.000332|
|          51|   -6.763473|   -6.242157|    0.050730|   -0.000250|
|          52|   -6.776977|   -6.256475|    0.050978|   -0.000260|
|          53|   -6.790161|   -6.270026|    0.051117|   -0.000341|
|          54|   -6.801480|   -6.281513|    0.051120|   -0.000377|
|          55|   -6.811844|   -6.292325|    0.051133|   -0.000339|
|          56|   -6.822804|   -6.303943|    0.051264|   -0.000298|
|          57|   -6.833730|   -6.315378|    0.051472|   -0.000311|
|          58|   -6.843986|   -6.325927|    0.051642|   -0.000348|
|          59|   -6.853903|   -6.336075|    0.051737|   -0.000354|
|          60|   -6.864373|   -6.346822|    0.051818|   -0.000327|
|          61|   -6.875819|   -6.358523|    0.051951|   -0.000307|
|          62|   -6.887788|   -6.370631|    0.052124|   -0.000316|
|          63|   -6.900006|   -6.382862|    0.052282|   -0.000331|
|          64|   -6.912745|   -6.395515|    0.052398|   -0.000329|
|          65|   -6.926281|   -6.408878|    0.052495|   -0.000316|
|          66|   -6.940532|   -6.422877|    0.052607|   -0.000312|
|          67|   -6.955121|   -6.437147|    0.052735|   -0.000320|
|          68|   -6.969930|   -6.451583|    0.052855|   -0.000328|
|          69|   -6.985111|   -6.466350|    0.052951|   -0.000329|
|          70|   -7.000582|   -6.481378|    0.053032|   -0.000328|
|          71|   -7.016024|   -6.496393|    0.053115|   -0.000332|
|          72|   -7.031157|   -6.511147|    0.053205|   -0.000341|
|          73|   -7.045977|   -6.525620|    0.053292|   -0.000349|
|          74|   -7.060675|   -6.539978|    0.053370|   -0.000352|
|          75|   -7.075303|   -6.554270|    0.053440|   -0.000356|
|          76|   -7.089728|   -6.568375|    0.053512|   -0.000362|
|          77|   -7.103875|   -6.582223|    0.053589|   -0.000370|
|          78|   -7.117888|   -6.595934|    0.053670|   -0.000376|
|          79|   -7.132011|   -6.609733|    0.053750|   -0.000379|
|          80|   -7.146374|   -6.623751|    0.053829|   -0.000382|
|          81|   -7.160953|   -6.637986|    0.053911|   -0.000387|
|          82|   -7.175720|   -6.652435|    0.053999|   -0.000391|
|          83|   -7.190723|   -6.667162|    0.054092|   -0.000393|
|          84|   -7.205995|   -6.682219|    0.054187|   -0.000394|
|          85|   -7.221468|   -6.697558|    0.054284|   -0.000395|
|          86|   -7.237012|   -6.713062|    0.054384|   -0.000396|
|          87|   -7.252524|   -6.728632|    0.054486|   -0.000396|
|          88|   -7.267934|   -6.744186|    0.054592|   -0.000396|
|          89|   -7.283159|   -6.759620|    0.054698|   -0.000395|
|          90|   -7.298127|   -6.774829|    0.054805|   -0.000394|
|          91|   -7.312836|   -6.789776|    0.054910|   -0.000393|
|          92|   -7.327368|   -6.804513|    0.055016|   -0.000393|
|          93|   -7.341840|   -6.819135|    0.055120|   -0.000391|
|          94|   -7.356377|   -6.833754|    0.055222|   -0.000391|
|          95|   -7.371116|   -6.848516|    0.055322|   -0.000390|
|          96|   -7.386209|   -6.863602|    0.055418|   -0.000390|
|          97|   -7.401778|   -6.879180|    0.055512|   -0.000390|
|          98|   -7.417881|   -6.895362|    0.055603|   -0.000390|
|          99|   -7.434490|   -6.912175|    0.055691|   -0.000391|
|         100|   -7.451500|   -6.929569|    0.055776|   -0.000391|
|         101|   -7.468738|   -6.947424|    0.055858|   -0.000393|
|         102|   -7.485974|   -6.965547|    0.055938|   -0.000394|
|         103|   -7.502940|   -6.983684|    0.056016|   -0.000395|
|         104|   -7.519357|   -7.001534|    0.056092|   -0.000397|
|         105|   -7.534974|   -7.018789|    0.056166|   -0.000399|
|         106|   -7.549615|   -7.035181|    0.056239|   -0.000401|
|         107|   -7.563219|   -7.050540|    0.056311|   -0.000403|
|         108|   -7.575862|   -7.064837|    0.056382|   -0.000406|
|         109|   -7.587748|   -7.078192|    0.056452|   -0.000408|
|         110|   -7.599173|   -7.090869|    0.056522|   -0.000410|
|         111|   -7.610488|   -7.103223|    0.056592|   -0.000412|
|         112|   -7.622035|   -7.115642|    0.056661|   -0.000414|
|         113|   -7.634098|   -7.128475|    0.056731|   -0.000415|
|         114|   -7.646860|   -7.141986|    0.056801|   -0.000417|
|         115|   -7.660395|   -7.156321|    0.056870|   -0.000418|
|         116|   -7.674662|   -7.171503|    0.056940|   -0.000420|
|         117|   -7.689519|   -7.187432|    0.057010|   -0.000421|
|         118|   -7.704743|   -7.203900|    0.057080|   -0.000422|
|         119|   -7.720059|   -7.220617|    0.057149|   -0.000422|
|         120|   -7.735181|   -7.237257|    0.057217|   -0.000423|
|         121|   -7.749854|   -7.253505|    0.057285|   -0.000424|
|         122|   -7.763902|   -7.269112|    0.057351|   -0.000424|
|         123|   -7.777257|   -7.283953|    0.057415|   -0.000424|
|         124|   -7.789983|   -7.298054|    0.057479|   -0.000425|
|         125|   -7.802258|   -7.311599|    0.057540|   -0.000425|
|         126|   -7.814347|   -7.324889|    0.057599|   -0.000425|
|         127|   -7.826545|   -7.338289|    0.057656|   -0.000426|
|         128|   -7.839131|   -7.352165|    0.057712|   -0.000426|
|         129|   -7.852319|   -7.366820|    0.057765|   -0.000426|
|         130|   -7.866234|   -7.382457|    0.057817|   -0.000427|
|         131|   -7.880887|   -7.399150|    0.057866|   -0.000427|
|         132|   -7.896177|   -7.416823|    0.057914|   -0.000428|
|         133|   -7.911894|   -7.435248|    0.057961|   -0.000428|
|         134|   -7.927737|   -7.454046|    0.058005|   -0.000429|
|         135|   -7.943344|   -7.472708|    0.058049|   -0.000429|
|         136|   -7.958344|   -7.490662|    0.058090|   -0.000430|
|         137|   -7.972420|   -7.507363|    0.058131|   -0.000431|
|         138|   -7.985375|   -7.522416|    0.058170|   -0.000432|
|         139|   -7.997180|   -7.535677|    0.058209|   -0.000433|
|         140|   -8.007975|   -7.547291|    0.058246|   -0.000434|
|         141|   -8.018043|   -7.557657|    0.058282|   -0.000435|
|         142|   -8.027739|   -7.567326|    0.058318|   -0.000436|
|         143|   -8.037424|   -7.576883|    0.058353|   -0.000437|
|         144|   -8.047399|   -7.586843|    0.058387|   -0.000437|
|         145|   -8.057864|   -7.597579|    0.058421|   -0.000438|
|         146|   -8.068896|   -7.609281|    0.058454|   -0.000439|
|         147|   -8.080445|   -7.621953|    0.058487|   -0.000440|
|         148|   -8.092360|   -7.635428|    0.058519|   -0.000441|
|         149|   -8.104409|   -7.649400|    0.058551|   -0.000442|
|         150|   -8.116335|   -7.663476|    0.058582|   -0.000443|
|         151|   -8.127894|   -7.677244|    0.058613|   -0.000444|
|         152|   -8.138907|   -7.690347|    0.058643|   -0.000444|
|         153|   -8.149294|   -7.702552|    0.058673|   -0.000445|
|         154|   -8.159090|   -7.713806|    0.058701|   -0.000446|
|         155|   -8.168439|   -7.724243|    0.058729|   -0.000446|
|         156|   -8.177567|   -7.734167|    0.058756|   -0.000447|
|         157|   -8.186748|   -7.743987|    0.058782|   -0.000448|
|         158|   -8.196250|   -7.754151|    0.058807|   -0.000448|
|         159|   -8.206309|   -7.765077|    0.058832|   -0.000448|
|         160|   -8.217088|   -7.777098|    0.058855|   -0.000449|
|         161|   -8.228661|   -7.790429|    0.058878|   -0.000449|
|         162|   -8.240998|   -7.805136|    0.058900|   -0.000450|
|         163|   -8.253958|   -7.821116|    0.058921|   -0.000450|
|         164|   -8.267301|   -7.838091|    0.058941|   -0.000450|
|         165|   -8.280705|   -7.855615|    0.058961|   -0.000451|
|         166|   -8.293803|   -7.873102|    0.058980|   -0.000451|
|         167|   -8.306238|   -7.889905|    0.058999|   -0.000451|
|         168|   -8.317725|   -7.905423|    0.059017|   -0.000452|
|         169|   -8.328105|   -7.919224|    0.059034|   -0.000452|
|         170|   -8.337375|   -7.931150|    0.059051|   -0.000452|
|         171|   -8.345685|   -7.941344|    0.059068|   -0.000452|
|         172|   -8.353294|   -7.950206|    0.059084|   -0.000453|
|         173|   -8.360520|   -7.958290|    0.059100|   -0.000453|
|         174|   -8.367677|   -7.966188|    0.059115|   -0.000453|
|         175|   -8.375029|   -7.974427|    0.059131|   -0.000454|
|         176|   -8.382761|   -7.983398|    0.059146|   -0.000454|
|         177|   -8.390957|   -7.993327|    0.059161|   -0.000454|
|         178|   -8.399610|   -8.004262|    0.059176|   -0.000454|
|         179|   -8.408621|   -8.016082|    0.059191|   -0.000455|
|         180|   -8.417832|   -8.028524|    0.059206|   -0.000455|
|         181|   -8.427043|   -8.041221|    0.059221|   -0.000455|
|         182|   -8.436053|   -8.053755|    0.059236|   -0.000456|
|         183|   -8.444691|   -8.065732|    0.059250|   -0.000456|
|         184|   -8.452843|   -8.076844|    0.059264|   -0.000456|
|         185|   -8.460469|   -8.086932|    0.059278|   -0.000456|
|         186|   -8.467603|   -8.096003|    0.059292|   -0.000457|
|         187|   -8.474348|   -8.104228|    0.059306|   -0.000457|
|         188|   -8.480845|   -8.111894|    0.059319|   -0.000457|
|         189|   -8.487257|   -8.119352|    0.059332|   -0.000457|
|         190|   -8.493737|   -8.126959|    0.059345|   -0.000458|
|         191|   -8.500413|   -8.135027|    0.059357|   -0.000458|
|         192|   -8.507374|   -8.143791|    0.059370|   -0.000458|
|         193|   -8.514656|   -8.153384|    0.059381|   -0.000458|
|         194|   -8.522248|   -8.163825|    0.059393|   -0.000458|
|         195|   -8.530086|   -8.175017|    0.059404|   -0.000459|
|         196|   -8.538073|   -8.186757|    0.059415|   -0.000459|
|         197|   -8.546082|   -8.198755|    0.059426|   -0.000459|
|         198|   -8.553984|   -8.210672|    0.059437|   -0.000459|
|         199|   -8.561663|   -8.222171|    0.059447|   -0.000459|
|         200|   -8.569035|   -8.232971|    0.059457|   -0.000459|
|         201|   -8.576061|   -8.242894|    0.059467|   -0.000459|
|         202|   -8.582747|   -8.251893|    0.059476|   -0.000459|
|         203|   -8.589143|   -8.260051|    0.059486|   -0.000459|
|         204|   -8.595328|   -8.267553|    0.059495|   -0.000459|
|         205|   -8.601393|   -8.274646|    0.059504|   -0.000459|
|         206|   -8.607429|   -8.281586|    0.059513|   -0.000460|
|         207|   -8.613509|   -8.288603|    0.059522|   -0.000460|
|         208|   -8.619682|   -8.295863|    0.059531|   -0.000460|
|         209|   -8.625967|   -8.303456|    0.059539|   -0.000460|
|         210|   -8.632353|   -8.311393|    0.059548|   -0.000460|
|         211|   -8.638803|   -8.319611|    0.059557|   -0.000460|
|         212|   -8.645264|   -8.327988|    0.059565|   -0.000460|
|         213|   -8.651672|   -8.336364|    0.059574|   -0.000460|
|         214|   -8.657965|   -8.344569|    0.059582|   -0.000460|
|         215|   -8.664088|   -8.352447|    0.059591|   -0.000460|
|         216|   -8.670005|   -8.359882|    0.059599|   -0.000460|
|         217|   -8.675700|   -8.366812|    0.059607|   -0.000460|
|         218|   -8.681180|   -8.373239|    0.059616|   -0.000460|
|         219|   -8.686468|   -8.379220|    0.059624|   -0.000460|
|         220|   -8.691605|   -8.384861|    0.059632|   -0.000460|
|         221|   -8.696638|   -8.390289|    0.059640|   -0.000460|
|         222|   -8.701615|   -8.395641|    0.059648|   -0.000460|
|         223|   -8.706581|   -8.401039|    0.059655|   -0.000460|
|         224|   -8.711571|   -8.406578|    0.059663|   -0.000460|
|         225|   -8.716610|   -8.412317|    0.059670|   -0.000460|
|         226|   -8.721708|   -8.418276|    0.059678|   -0.000460|
|         227|   -8.726862|   -8.424436|    0.059685|   -0.000460|
|         228|   -8.732062|   -8.430748|    0.059692|   -0.000460|
|         229|   -8.737286|   -8.437136|    0.059699|   -0.000460|
|         230|   -8.742512|   -8.443519|    0.059706|   -0.000460|
|         231|   -8.747715|   -8.449816|    0.059713|   -0.000460|
|         232|   -8.752877|   -8.455963|    0.059720|   -0.000460|
|         233|   -8.757982|   -8.461918|    0.059726|   -0.000460|
|         234|   -8.763024|   -8.467670|    0.059733|   -0.000460|
|         235|   -8.768005|   -8.473234|    0.059739|   -0.000460|
|         236|   -8.772930|   -8.478648|    0.059746|   -0.000460|
|         237|   -8.777811|   -8.483966|    0.059752|   -0.000460|
|         238|   -8.782660|   -8.489245|    0.059759|   -0.000460|
|         239|   -8.787487|   -8.494539|    0.059765|   -0.000460|
|         240|   -8.792302|   -8.499888|    0.059771|   -0.000460|
|         241|   -8.797107|   -8.505317|    0.059778|   -0.000460|
|         242|   -8.801903|   -8.510831|    0.059784|   -0.000460|
|         243|   -8.806683|   -8.516414|    0.059790|   -0.000460|
|         244|   -8.811439|   -8.522037|    0.059796|   -0.000460|
|         245|   -8.816160|   -8.527658|    0.059803|   -0.000460|
|         246|   -8.820833|   -8.533231|    0.059809|   -0.000460|
|         247|   -8.825446|   -8.538712|    0.059815|   -0.000460|
|         248|   -8.829992|   -8.544064|    0.059821|   -0.000460|
|         249|   -8.834465|   -8.549264|    0.059827|   -0.000460|
|         250|   -8.838863|   -8.554301|    0.059834|   -0.000460|
+-----------------------------------------------------------------------+
|        File Writing Summary       |              Filename             |
+-----------------------------------------------------------------------+
|SU2 restart                        |restart_flow.dat                   |
|Paraview                           |flow.vtu                           |
|Paraview surface                   |surface_flow.vtu                   |
|CSV file                           |surface_flow.csv                   |
+-----------------------------------------------------------------------+
+----------------------------------------------------------------+
|  Inner_Iter|    rms[Rho]|   rms[RhoE]|          CL|          CD|
+----------------------------------------------------------------+
|         251|   -8.843190|   -8.559185|    0.059840|   -0.000460|
|         252|   -8.847453|   -8.563936|    0.059846|   -0.000460|
|         253|   -8.851663|   -8.568589|    0.059852|   -0.000460|
|         254|   -8.855832|   -8.573184|    0.059858|   -0.000460|
|         255|   -8.859974|   -8.577765|    0.059864|   -0.000460|
|         256|   -8.864101|   -8.582373|    0.059870|   -0.000460|
|         257|   -8.868225|   -8.587044|    0.059876|   -0.000460|
|         258|   -8.872356|   -8.591805|    0.059882|   -0.000460|
|         259|   -8.876501|   -8.596671|    0.059887|   -0.000459|
|         260|   -8.880663|   -8.601650|    0.059893|   -0.000459|
|         261|   -8.884844|   -8.606736|    0.059899|   -0.000459|
|         262|   -8.889042|   -8.611919|    0.059904|   -0.000459|
|         263|   -8.893254|   -8.617181|    0.059910|   -0.000459|
|         264|   -8.897477|   -8.622503|    0.059916|   -0.000459|
|         265|   -8.901706|   -8.627866|    0.059921|   -0.000459|
|         266|   -8.905937|   -8.633253|    0.059927|   -0.000459|
|         267|   -8.910166|   -8.638649|    0.059932|   -0.000459|
|         268|   -8.914391|   -8.644047|    0.059938|   -0.000459|
|         269|   -8.918611|   -8.649441|    0.059943|   -0.000459|
|         270|   -8.922825|   -8.654830|    0.059948|   -0.000459|
|         271|   -8.927034|   -8.660217|    0.059954|   -0.000459|
|         272|   -8.931238|   -8.665602|    0.059959|   -0.000459|
|         273|   -8.935439|   -8.670988|    0.059964|   -0.000459|
|         274|   -8.939636|   -8.676375|    0.059970|   -0.000459|
|         275|   -8.943831|   -8.681761|    0.059975|   -0.000459|
|         276|   -8.948022|   -8.687141|    0.059980|   -0.000458|
|         277|   -8.952210|   -8.692509|    0.059986|   -0.000458|
|         278|   -8.956393|   -8.697856|    0.059991|   -0.000458|
|         279|   -8.960571|   -8.703173|    0.059996|   -0.000458|
|         280|   -8.964741|   -8.708452|    0.060001|   -0.000458|
|         281|   -8.968905|   -8.713685|    0.060006|   -0.000458|
|         282|   -8.973061|   -8.718871|    0.060012|   -0.000458|
|         283|   -8.977212|   -8.724008|    0.060017|   -0.000458|
|         284|   -8.981359|   -8.729102|    0.060022|   -0.000458|
|         285|   -8.985504|   -8.734162|    0.060027|   -0.000458|
|         286|   -8.989652|   -8.739198|    0.060032|   -0.000458|
|         287|   -8.993807|   -8.744226|    0.060037|   -0.000458|
|         288|   -8.997974|   -8.749262|    0.060042|   -0.000458|
|         289|   -9.002156|   -8.754323|    0.060047|   -0.000458|
|         290|   -9.006360|   -8.759423|    0.060052|   -0.000458|
|         291|   -9.010589|   -8.764578|    0.060057|   -0.000458|
|         292|   -9.014847|   -8.769798|    0.060062|   -0.000458|
|         293|   -9.019135|   -8.775091|    0.060067|   -0.000458|
|         294|   -9.023457|   -8.780462|    0.060072|   -0.000457|
|         295|   -9.027813|   -8.785912|    0.060077|   -0.000457|
|         296|   -9.032202|   -8.791440|    0.060082|   -0.000457|
|         297|   -9.036625|   -8.797043|    0.060087|   -0.000457|
|         298|   -9.041081|   -8.802713|    0.060091|   -0.000457|
|         299|   -9.045568|   -8.808445|    0.060096|   -0.000457|
|         300|   -9.050084|   -8.814231|    0.060101|   -0.000457|
|         301|   -9.054628|   -8.820062|    0.060106|   -0.000457|
|         302|   -9.059199|   -8.825931|    0.060110|   -0.000457|
|         303|   -9.063794|   -8.831830|    0.060115|   -0.000457|
|         304|   -9.068414|   -8.837753|    0.060120|   -0.000457|
|         305|   -9.073055|   -8.843692|    0.060124|   -0.000457|
|         306|   -9.077719|   -8.849641|    0.060129|   -0.000457|
|         307|   -9.082403|   -8.855593|    0.060133|   -0.000457|
|         308|   -9.087107|   -8.861543|    0.060138|   -0.000457|
|         309|   -9.091831|   -8.867484|    0.060143|   -0.000457|
|         310|   -9.096573|   -8.873411|    0.060147|   -0.000457|
|         311|   -9.101333|   -8.879320|    0.060152|   -0.000457|
|         312|   -9.106112|   -8.885206|    0.060156|   -0.000456|
|         313|   -9.110908|   -8.891069|    0.060161|   -0.000456|
|         314|   -9.115724|   -8.896905|    0.060165|   -0.000456|
|         315|   -9.120558|   -8.902718|    0.060169|   -0.000456|
|         316|   -9.125411|   -8.908508|    0.060174|   -0.000456|
|         317|   -9.130287|   -8.914281|    0.060178|   -0.000456|
|         318|   -9.135185|   -8.920044|    0.060183|   -0.000456|
|         319|   -9.140107|   -8.925803|    0.060187|   -0.000456|
|         320|   -9.145056|   -8.931568|    0.060191|   -0.000456|
|         321|   -9.150035|   -8.937347|    0.060196|   -0.000456|
|         322|   -9.155044|   -8.943150|    0.060200|   -0.000456|
|         323|   -9.160085|   -8.948986|    0.060204|   -0.000456|
|         324|   -9.165161|   -8.954862|    0.060208|   -0.000456|
|         325|   -9.170274|   -8.960786|    0.060212|   -0.000456|
|         326|   -9.175424|   -8.966763|    0.060216|   -0.000456|
|         327|   -9.180612|   -8.972797|    0.060221|   -0.000456|
|         328|   -9.185839|   -8.978889|    0.060225|   -0.000456|
|         329|   -9.191105|   -8.985041|    0.060229|   -0.000456|
|         330|   -9.196410|   -8.991250|    0.060233|   -0.000456|
|         331|   -9.201753|   -8.997513|    0.060237|   -0.000456|
|         332|   -9.207133|   -9.003828|    0.060241|   -0.000456|
|         333|   -9.212551|   -9.010189|    0.060245|   -0.000456|
|         334|   -9.218005|   -9.016591|    0.060249|   -0.000456|
|         335|   -9.223494|   -9.023029|    0.060253|   -0.000456|
|         336|   -9.229017|   -9.029495|    0.060257|   -0.000455|
|         337|   -9.234574|   -9.035984|    0.060260|   -0.000455|
|         338|   -9.240162|   -9.042489|    0.060264|   -0.000455|
|         339|   -9.245783|   -9.049003|    0.060268|   -0.000455|
|         340|   -9.251434|   -9.055522|    0.060272|   -0.000455|
|         341|   -9.257115|   -9.062038|    0.060276|   -0.000455|
|         342|   -9.262825|   -9.068548|    0.060279|   -0.000455|
|         343|   -9.268565|   -9.075046|    0.060283|   -0.000455|
|         344|   -9.274332|   -9.081529|    0.060287|   -0.000455|
|         345|   -9.280129|   -9.087996|    0.060290|   -0.000455|
|         346|   -9.285954|   -9.094445|    0.060294|   -0.000455|
|         347|   -9.291807|   -9.100875|    0.060298|   -0.000455|
|         348|   -9.297690|   -9.107289|    0.060301|   -0.000455|
|         349|   -9.303603|   -9.113689|    0.060305|   -0.000455|
|         350|   -9.309545|   -9.120080|    0.060308|   -0.000455|
|         351|   -9.315520|   -9.126465|    0.060312|   -0.000455|
|         352|   -9.321526|   -9.132850|    0.060315|   -0.000455|
|         353|   -9.327567|   -9.139242|    0.060319|   -0.000455|
|         354|   -9.333642|   -9.145646|    0.060322|   -0.000455|
|         355|   -9.339752|   -9.152070|    0.060326|   -0.000455|
|         356|   -9.345899|   -9.158518|    0.060329|   -0.000455|
|         357|   -9.352083|   -9.164996|    0.060332|   -0.000455|
|         358|   -9.358305|   -9.171507|    0.060336|   -0.000455|
|         359|   -9.364566|   -9.178056|    0.060339|   -0.000455|
|         360|   -9.370865|   -9.184645|    0.060342|   -0.000455|
|         361|   -9.377203|   -9.191273|    0.060345|   -0.000455|
|         362|   -9.383580|   -9.197942|    0.060349|   -0.000455|
|         363|   -9.389995|   -9.204649|    0.060352|   -0.000455|
|         364|   -9.396448|   -9.211393|    0.060355|   -0.000455|
|         365|   -9.402937|   -9.218171|    0.060358|   -0.000455|
|         366|   -9.409463|   -9.224978|    0.060361|   -0.000455|
|         367|   -9.416025|   -9.231811|    0.060364|   -0.000455|
|         368|   -9.422621|   -9.238664|    0.060367|   -0.000455|
|         369|   -9.429252|   -9.245533|    0.060370|   -0.000455|
|         370|   -9.435915|   -9.252412|    0.060373|   -0.000455|
|         371|   -9.442611|   -9.259297|    0.060376|   -0.000455|
|         372|   -9.449338|   -9.266182|    0.060379|   -0.000455|
|         373|   -9.456097|   -9.273064|    0.060382|   -0.000454|
|         374|   -9.462885|   -9.279938|    0.060385|   -0.000454|
|         375|   -9.469704|   -9.286801|    0.060388|   -0.000454|
|         376|   -9.476552|   -9.293650|    0.060391|   -0.000454|
|         377|   -9.483429|   -9.300484|    0.060393|   -0.000454|
|         378|   -9.490336|   -9.307302|    0.060396|   -0.000454|
|         379|   -9.497272|   -9.314103|    0.060399|   -0.000454|
|         380|   -9.504237|   -9.320889|    0.060402|   -0.000454|
|         381|   -9.511233|   -9.327661|    0.060404|   -0.000454|
|         382|   -9.518258|   -9.334422|    0.060407|   -0.000454|
|         383|   -9.525314|   -9.341175|    0.060410|   -0.000454|
|         384|   -9.532401|   -9.347924|    0.060412|   -0.000454|
|         385|   -9.539520|   -9.354672|    0.060415|   -0.000454|
|         386|   -9.546672|   -9.361423|    0.060417|   -0.000454|
|         387|   -9.553856|   -9.368182|    0.060420|   -0.000454|
|         388|   -9.561074|   -9.374952|    0.060422|   -0.000454|
|         389|   -9.568325|   -9.381737|    0.060425|   -0.000454|
|         390|   -9.575611|   -9.388540|    0.060427|   -0.000454|
|         391|   -9.582931|   -9.395362|    0.060430|   -0.000454|
|         392|   -9.590285|   -9.402206|    0.060432|   -0.000454|
|         393|   -9.597674|   -9.409071|    0.060435|   -0.000454|
|         394|   -9.605097|   -9.415959|    0.060437|   -0.000454|
|         395|   -9.612553|   -9.422868|    0.060439|   -0.000454|
|         396|   -9.620043|   -9.429797|    0.060442|   -0.000454|
|         397|   -9.627566|   -9.436743|    0.060444|   -0.000454|
|         398|   -9.635121|   -9.443705|    0.060446|   -0.000454|
|         399|   -9.642707|   -9.450679|    0.060448|   -0.000454|
|         400|   -9.650324|   -9.457661|    0.060451|   -0.000454|
|         401|   -9.657971|   -9.464649|    0.060453|   -0.000454|
|         402|   -9.665648|   -9.471639|    0.060455|   -0.000454|
|         403|   -9.673353|   -9.478627|    0.060457|   -0.000454|
|         404|   -9.681086|   -9.485611|    0.060459|   -0.000454|
|         405|   -9.688846|   -9.492586|    0.060461|   -0.000454|
|         406|   -9.696634|   -9.499551|    0.060463|   -0.000454|
|         407|   -9.704447|   -9.506504|    0.060466|   -0.000454|
|         408|   -9.712287|   -9.513442|    0.060468|   -0.000454|
|         409|   -9.720152|   -9.520365|    0.060470|   -0.000454|
|         410|   -9.728043|   -9.527273|    0.060472|   -0.000454|
|         411|   -9.735960|   -9.534166|    0.060474|   -0.000454|
|         412|   -9.743901|   -9.541043|    0.060475|   -0.000454|
|         413|   -9.751869|   -9.547908|    0.060477|   -0.000454|
|         414|   -9.759862|   -9.554760|    0.060479|   -0.000454|
|         415|   -9.767881|   -9.561603|    0.060481|   -0.000454|
|         416|   -9.775926|   -9.568438|    0.060483|   -0.000454|
|         417|   -9.783998|   -9.575268|    0.060485|   -0.000454|
|         418|   -9.792096|   -9.582096|    0.060487|   -0.000454|
|         419|   -9.800221|   -9.588923|    0.060488|   -0.000454|
|         420|   -9.808373|   -9.595751|    0.060490|   -0.000454|
|         421|   -9.816552|   -9.602584|    0.060492|   -0.000454|
|         422|   -9.824758|   -9.609422|    0.060494|   -0.000454|
|         423|   -9.832992|   -9.616267|    0.060495|   -0.000454|
|         424|   -9.841252|   -9.623119|    0.060497|   -0.000454|
|         425|   -9.849539|   -9.629979|    0.060499|   -0.000454|
|         426|   -9.857852|   -9.636847|    0.060500|   -0.000454|
|         427|   -9.866191|   -9.643723|    0.060502|   -0.000454|
|         428|   -9.874556|   -9.650605|    0.060504|   -0.000454|
|         429|   -9.882946|   -9.657493|    0.060505|   -0.000454|
|         430|   -9.891361|   -9.664385|    0.060507|   -0.000454|
|         431|   -9.899799|   -9.671279|    0.060508|   -0.000454|
|         432|   -9.908261|   -9.678173|    0.060510|   -0.000454|
|         433|   -9.916745|   -9.685066|    0.060511|   -0.000454|
|         434|   -9.925251|   -9.691956|    0.060513|   -0.000454|
|         435|   -9.933778|   -9.698842|    0.060514|   -0.000454|
|         436|   -9.942325|   -9.705720|    0.060516|   -0.000454|
|         437|   -9.950893|   -9.712591|    0.060517|   -0.000454|
|         438|   -9.959480|   -9.719452|    0.060518|   -0.000454|
|         439|   -9.968087|   -9.726304|    0.060520|   -0.000454|
|         440|   -9.976711|   -9.733145|    0.060521|   -0.000454|
|         441|   -9.985355|   -9.739975|    0.060523|   -0.000454|
|         442|   -9.994016|   -9.746794|    0.060524|   -0.000454|
|         443|  -10.002694|   -9.753603|    0.060525|   -0.000454|
|         444|  -10.011391|   -9.760402|    0.060526|   -0.000454|
|         445|  -10.020105|   -9.767191|    0.060528|   -0.000454|
|         446|  -10.028836|   -9.773973|    0.060529|   -0.000454|
|         447|  -10.037584|   -9.780748|    0.060530|   -0.000454|
|         448|  -10.046350|   -9.787517|    0.060531|   -0.000454|
|         449|  -10.055132|   -9.794281|    0.060533|   -0.000454|
|         450|  -10.063932|   -9.801043|    0.060534|   -0.000454|
|         451|  -10.072749|   -9.807802|    0.060535|   -0.000454|
|         452|  -10.081582|   -9.814561|    0.060536|   -0.000454|
|         453|  -10.090432|   -9.821320|    0.060537|   -0.000454|
|         454|  -10.099298|   -9.828080|    0.060539|   -0.000454|
|         455|  -10.108181|   -9.834841|    0.060540|   -0.000454|
|         456|  -10.117079|   -9.841604|    0.060541|   -0.000454|
|         457|  -10.125993|   -9.848369|    0.060542|   -0.000454|
|         458|  -10.134921|   -9.855136|    0.060543|   -0.000454|
|         459|  -10.143864|   -9.861905|    0.060544|   -0.000454|
|         460|  -10.152821|   -9.868675|    0.060545|   -0.000454|
|         461|  -10.161791|   -9.875445|    0.060546|   -0.000454|
|         462|  -10.170774|   -9.882216|    0.060547|   -0.000454|
|         463|  -10.179769|   -9.888986|    0.060548|   -0.000454|
|         464|  -10.188775|   -9.895756|    0.060549|   -0.000454|
|         465|  -10.197793|   -9.902523|    0.060550|   -0.000454|
|         466|  -10.206820|   -9.909288|    0.060551|   -0.000454|
|         467|  -10.215857|   -9.916050|    0.060552|   -0.000454|
|         468|  -10.224902|   -9.922808|    0.060553|   -0.000454|
|         469|  -10.233957|   -9.929562|    0.060554|   -0.000454|
|         470|  -10.243019|   -9.936312|    0.060555|   -0.000454|
|         471|  -10.252088|   -9.943058|    0.060556|   -0.000454|
|         472|  -10.261165|   -9.949800|    0.060556|   -0.000454|
|         473|  -10.270248|   -9.956537|    0.060557|   -0.000454|
|         474|  -10.279337|   -9.963270|    0.060558|   -0.000454|
|         475|  -10.288432|   -9.970000|    0.060559|   -0.000454|
|         476|  -10.297532|   -9.976727|    0.060560|   -0.000454|
|         477|  -10.306637|   -9.983450|    0.060561|   -0.000454|
|         478|  -10.315748|   -9.990173|    0.060561|   -0.000454|
|         479|  -10.324863|   -9.996893|    0.060562|   -0.000454|
|         480|  -10.333982|  -10.003613|    0.060563|   -0.000454|
|         481|  -10.343105|  -10.010333|    0.060564|   -0.000454|
|         482|  -10.352232|  -10.017053|    0.060565|   -0.000454|
|         483|  -10.361363|  -10.023774|    0.060565|   -0.000454|
|         484|  -10.370496|  -10.030496|    0.060566|   -0.000454|
|         485|  -10.379632|  -10.037220|    0.060567|   -0.000454|
|         486|  -10.388770|  -10.043946|    0.060568|   -0.000454|
|         487|  -10.397911|  -10.050673|    0.060568|   -0.000454|
|         488|  -10.407052|  -10.057403|    0.060569|   -0.000454|
|         489|  -10.416194|  -10.064135|    0.060570|   -0.000454|
|         490|  -10.425337|  -10.070869|    0.060570|   -0.000454|
|         491|  -10.434479|  -10.077605|    0.060571|   -0.000454|
|         492|  -10.443621|  -10.084343|    0.060572|   -0.000454|
|         493|  -10.452762|  -10.091082|    0.060572|   -0.000454|
|         494|  -10.461900|  -10.097823|    0.060573|   -0.000454|
|         495|  -10.471036|  -10.104566|    0.060573|   -0.000454|
|         496|  -10.480170|  -10.111309|    0.060574|   -0.000454|
|         497|  -10.489299|  -10.118053|    0.060575|   -0.000454|
|         498|  -10.498424|  -10.124798|    0.060575|   -0.000454|
|         499|  -10.507545|  -10.131543|    0.060576|   -0.000454|
|         500|  -10.516661|  -10.138289|    0.060576|   -0.000454|
+-----------------------------------------------------------------------+
|        File Writing Summary       |              Filename             |
+-----------------------------------------------------------------------+
|SU2 restart                        |restart_flow.dat                   |
|Paraview                           |flow.vtu                           |
|Paraview surface                   |surface_flow.vtu                   |
|CSV file                           |surface_flow.csv                   |
+-----------------------------------------------------------------------+
+----------------------------------------------------------------+
|  Inner_Iter|    rms[Rho]|   rms[RhoE]|          CL|          CD|
+----------------------------------------------------------------+
|         501|  -10.525772|  -10.145036|    0.060577|   -0.000454|
|         502|  -10.534876|  -10.151783|    0.060578|   -0.000454|
|         503|  -10.543974|  -10.158531|    0.060578|   -0.000454|
|         504|  -10.553066|  -10.165280|    0.060579|   -0.000454|
|         505|  -10.562150|  -10.172029|    0.060579|   -0.000454|
|         506|  -10.571227|  -10.178780|    0.060580|   -0.000454|
|         507|  -10.580296|  -10.185532|    0.060580|   -0.000454|
|         508|  -10.589357|  -10.192287|    0.060581|   -0.000454|
|         509|  -10.598410|  -10.199043|    0.060581|   -0.000454|
|         510|  -10.607454|  -10.205801|    0.060582|   -0.000454|
|         511|  -10.616490|  -10.212562|    0.060582|   -0.000454|
|         512|  -10.625516|  -10.219325|    0.060583|   -0.000454|
|         513|  -10.634533|  -10.226092|    0.060583|   -0.000454|
|         514|  -10.643539|  -10.232861|    0.060584|   -0.000454|
|         515|  -10.652536|  -10.239634|    0.060584|   -0.000454|
|         516|  -10.661522|  -10.246410|    0.060585|   -0.000454|
|         517|  -10.670498|  -10.253189|    0.060585|   -0.000454|
|         518|  -10.679462|  -10.259972|    0.060585|   -0.000454|
|         519|  -10.688415|  -10.266758|    0.060586|   -0.000454|
|         520|  -10.697356|  -10.273547|    0.060586|   -0.000454|
|         521|  -10.706284|  -10.280340|    0.060587|   -0.000454|
|         522|  -10.715201|  -10.287136|    0.060587|   -0.000454|
|         523|  -10.724104|  -10.293934|    0.060588|   -0.000454|
|         524|  -10.732993|  -10.300736|    0.060588|   -0.000454|
|         525|  -10.741869|  -10.307541|    0.060588|   -0.000454|
|         526|  -10.750731|  -10.314349|    0.060589|   -0.000454|
|         527|  -10.759578|  -10.321159|    0.060589|   -0.000454|
|         528|  -10.768411|  -10.327972|    0.060589|   -0.000454|
|         529|  -10.777229|  -10.334788|    0.060590|   -0.000454|
|         530|  -10.786031|  -10.341606|    0.060590|   -0.000454|
|         531|  -10.794818|  -10.348427|    0.060591|   -0.000454|
|         532|  -10.803590|  -10.355251|    0.060591|   -0.000454|
|         533|  -10.812345|  -10.362077|    0.060591|   -0.000454|
|         534|  -10.821084|  -10.368906|    0.060592|   -0.000454|
|         535|  -10.829807|  -10.375738|    0.060592|   -0.000454|
|         536|  -10.838514|  -10.382572|    0.060592|   -0.000454|
|         537|  -10.847203|  -10.389410|    0.060593|   -0.000454|
|         538|  -10.855877|  -10.396250|    0.060593|   -0.000454|
|         539|  -10.864533|  -10.403093|    0.060593|   -0.000454|
|         540|  -10.873173|  -10.409939|    0.060594|   -0.000454|
|         541|  -10.881795|  -10.416789|    0.060594|   -0.000454|
|         542|  -10.890400|  -10.423641|    0.060594|   -0.000454|
|         543|  -10.898988|  -10.430497|    0.060594|   -0.000454|
|         544|  -10.907559|  -10.437356|    0.060595|   -0.000454|
|         545|  -10.916112|  -10.444218|    0.060595|   -0.000454|
|         546|  -10.924647|  -10.451083|    0.060595|   -0.000454|
|         547|  -10.933165|  -10.457952|    0.060596|   -0.000454|
|         548|  -10.941664|  -10.464823|    0.060596|   -0.000454|
|         549|  -10.950146|  -10.471697|    0.060596|   -0.000454|
|         550|  -10.958610|  -10.478575|    0.060596|   -0.000454|
|         551|  -10.967054|  -10.485455|    0.060597|   -0.000454|
|         552|  -10.975481|  -10.492337|    0.060597|   -0.000454|
|         553|  -10.983889|  -10.499222|    0.060597|   -0.000454|
|         554|  -10.992279|  -10.506111|    0.060597|   -0.000454|
|         555|  -11.000650|  -10.513001|    0.060598|   -0.000454|
|         556|  -11.009002|  -10.519894|    0.060598|   -0.000454|
|         557|  -11.017336|  -10.526788|    0.060598|   -0.000454|
|         558|  -11.025650|  -10.533686|    0.060598|   -0.000454|
|         559|  -11.033946|  -10.540585|    0.060599|   -0.000454|
|         560|  -11.042223|  -10.547487|    0.060599|   -0.000454|
|         561|  -11.050481|  -10.554390|    0.060599|   -0.000454|
|         562|  -11.058720|  -10.561296|    0.060599|   -0.000454|
|         563|  -11.066940|  -10.568203|    0.060599|   -0.000454|
|         564|  -11.075141|  -10.575113|    0.060600|   -0.000454|
|         565|  -11.083324|  -10.582025|    0.060600|   -0.000454|
|         566|  -11.091488|  -10.588938|    0.060600|   -0.000454|
|         567|  -11.099634|  -10.595853|    0.060600|   -0.000454|
|         568|  -11.107761|  -10.602771|    0.060600|   -0.000454|
|         569|  -11.115870|  -10.609689|    0.060601|   -0.000454|
|         570|  -11.123960|  -10.616610|    0.060601|   -0.000454|
|         571|  -11.132031|  -10.623532|    0.060601|   -0.000454|
|         572|  -11.140085|  -10.630456|    0.060601|   -0.000454|
|         573|  -11.148121|  -10.637382|    0.060601|   -0.000454|
|         574|  -11.156137|  -10.644308|    0.060602|   -0.000454|
|         575|  -11.164136|  -10.651237|    0.060602|   -0.000454|
|         576|  -11.172117|  -10.658166|    0.060602|   -0.000454|
|         577|  -11.180080|  -10.665097|    0.060602|   -0.000454|
|         578|  -11.188024|  -10.672028|    0.060602|   -0.000454|
|         579|  -11.195950|  -10.678960|    0.060602|   -0.000454|
|         580|  -11.203858|  -10.685893|    0.060603|   -0.000454|
|         581|  -11.211749|  -10.692827|    0.060603|   -0.000454|
|         582|  -11.219621|  -10.699761|    0.060603|   -0.000454|
|         583|  -11.227475|  -10.706695|    0.060603|   -0.000454|
|         584|  -11.235311|  -10.713629|    0.060603|   -0.000454|
|         585|  -11.243130|  -10.720563|    0.060603|   -0.000454|
|         586|  -11.250930|  -10.727497|    0.060603|   -0.000454|
|         587|  -11.258713|  -10.734431|    0.060604|   -0.000454|
|         588|  -11.266478|  -10.741364|    0.060604|   -0.000454|
|         589|  -11.274226|  -10.748297|    0.060604|   -0.000454|
|         590|  -11.281956|  -10.755229|    0.060604|   -0.000454|
|         591|  -11.289669|  -10.762162|    0.060604|   -0.000454|
|         592|  -11.297365|  -10.769092|    0.060604|   -0.000454|
|         593|  -11.305044|  -10.776023|    0.060604|   -0.000454|
|         594|  -11.312707|  -10.782953|    0.060605|   -0.000454|
|         595|  -11.320352|  -10.789881|    0.060605|   -0.000454|
|         596|  -11.327980|  -10.796808|    0.060605|   -0.000454|
|         597|  -11.335593|  -10.803735|    0.060605|   -0.000454|
|         598|  -11.343188|  -10.810660|    0.060605|   -0.000454|
|         599|  -11.350768|  -10.817584|    0.060605|   -0.000454|
|         600|  -11.358332|  -10.824507|    0.060605|   -0.000454|
|         601|  -11.365879|  -10.831428|    0.060605|   -0.000454|
|         602|  -11.373411|  -10.838348|    0.060605|   -0.000454|
|         603|  -11.380928|  -10.845267|    0.060606|   -0.000454|
|         604|  -11.388428|  -10.852183|    0.060606|   -0.000454|
|         605|  -11.395913|  -10.859097|    0.060606|   -0.000454|
|         606|  -11.403383|  -10.866011|    0.060606|   -0.000454|
|         607|  -11.410837|  -10.872920|    0.060606|   -0.000454|
|         608|  -11.418274|  -10.879827|    0.060606|   -0.000454|
|         609|  -11.425698|  -10.886733|    0.060606|   -0.000454|
|         610|  -11.433104|  -10.893634|    0.060606|   -0.000454|
|         611|  -11.440497|  -10.900535|    0.060606|   -0.000454|
|         612|  -11.447873|  -10.907430|    0.060607|   -0.000454|
|         613|  -11.455236|  -10.914325|    0.060607|   -0.000454|
|         614|  -11.462582|  -10.921214|    0.060607|   -0.000454|
|         615|  -11.469912|  -10.928099|    0.060607|   -0.000454|
|         616|  -11.477229|  -10.934982|    0.060607|   -0.000454|
|         617|  -11.484529|  -10.941860|    0.060607|   -0.000454|
|         618|  -11.491815|  -10.948735|    0.060607|   -0.000454|
|         619|  -11.499085|  -10.955603|    0.060607|   -0.000454|
|         620|  -11.506342|  -10.962471|    0.060607|   -0.000454|
|         621|  -11.513583|  -10.969332|    0.060607|   -0.000454|
|         622|  -11.520810|  -10.976189|    0.060607|   -0.000454|
|         623|  -11.528021|  -10.983041|    0.060608|   -0.000454|
|         624|  -11.535219|  -10.989889|    0.060608|   -0.000454|
|         625|  -11.542403|  -10.996733|    0.060608|   -0.000454|
|         626|  -11.549571|  -11.003571|    0.060608|   -0.000454|
|         627|  -11.556727|  -11.010405|    0.060608|   -0.000454|
|         628|  -11.563867|  -11.017232|    0.060608|   -0.000454|
|         629|  -11.570996|  -11.024057|    0.060608|   -0.000454|
|         630|  -11.578109|  -11.030875|    0.060608|   -0.000454|
|         631|  -11.585208|  -11.037687|    0.060608|   -0.000454|
|         632|  -11.592295|  -11.044495|    0.060608|   -0.000454|
|         633|  -11.599367|  -11.051297|    0.060608|   -0.000454|
|         634|  -11.606427|  -11.058095|    0.060608|   -0.000454|
|         635|  -11.613473|  -11.064885|    0.060608|   -0.000454|
|         636|  -11.620505|  -11.071670|    0.060608|   -0.000454|
|         637|  -11.627525|  -11.078449|    0.060609|   -0.000454|
|         638|  -11.634531|  -11.085224|    0.060609|   -0.000454|
|         639|  -11.641524|  -11.091990|    0.060609|   -0.000454|
|         640|  -11.648503|  -11.098751|    0.060609|   -0.000454|
|         641|  -11.655470|  -11.105506|    0.060609|   -0.000454|
|         642|  -11.662422|  -11.112252|    0.060609|   -0.000454|
|         643|  -11.669364|  -11.118996|    0.060609|   -0.000454|
|         644|  -11.676289|  -11.125729|    0.060609|   -0.000454|
|         645|  -11.683202|  -11.132456|    0.060609|   -0.000454|
|         646|  -11.690103|  -11.139177|    0.060609|   -0.000454|
|         647|  -11.696992|  -11.145890|    0.060609|   -0.000454|
|         648|  -11.703866|  -11.152596|    0.060609|   -0.000454|
|         649|  -11.710727|  -11.159294|    0.060609|   -0.000454|
|         650|  -11.717575|  -11.165984|    0.060609|   -0.000454|
|         651|  -11.724411|  -11.172668|    0.060609|   -0.000454|
|         652|  -11.731233|  -11.179344|    0.060609|   -0.000454|
|         653|  -11.738043|  -11.186011|    0.060609|   -0.000454|
|         654|  -11.744839|  -11.192670|    0.060609|   -0.000454|
|         655|  -11.751624|  -11.199324|    0.060610|   -0.000454|
|         656|  -11.758394|  -11.205966|    0.060610|   -0.000454|
|         657|  -11.765155|  -11.212604|    0.060610|   -0.000454|
|         658|  -11.771901|  -11.219231|    0.060610|   -0.000454|
|         659|  -11.778635|  -11.225851|    0.060610|   -0.000454|
|         660|  -11.785358|  -11.232465|    0.060610|   -0.000454|
|         661|  -11.792068|  -11.239068|    0.060610|   -0.000454|
|         662|  -11.798765|  -11.245663|    0.060610|   -0.000454|
|         663|  -11.805452|  -11.252252|    0.060610|   -0.000454|
|         664|  -11.812127|  -11.258833|    0.060610|   -0.000454|
|         665|  -11.818789|  -11.265404|    0.060610|   -0.000454|
|         666|  -11.825440|  -11.271967|    0.060610|   -0.000454|
|         667|  -11.832080|  -11.278523|    0.060610|   -0.000454|
|         668|  -11.838708|  -11.285071|    0.060610|   -0.000454|
|         669|  -11.845320|  -11.291606|    0.060610|   -0.000454|
|         670|  -11.851924|  -11.298136|    0.060610|   -0.000454|
|         671|  -11.858518|  -11.304658|    0.060610|   -0.000454|
|         672|  -11.865099|  -11.311171|    0.060610|   -0.000454|
|         673|  -11.871667|  -11.317674|    0.060610|   -0.000454|
|         674|  -11.878223|  -11.324167|    0.060610|   -0.000454|
|         675|  -11.884772|  -11.330657|    0.060610|   -0.000454|
|         676|  -11.891306|  -11.337134|    0.060610|   -0.000454|
|         677|  -11.897833|  -11.343606|    0.060610|   -0.000454|
|         678|  -11.904342|  -11.350062|    0.060611|   -0.000454|
|         679|  -11.910844|  -11.356515|    0.060611|   -0.000454|
|         680|  -11.917332|  -11.362956|    0.060611|   -0.000454|
|         681|  -11.923812|  -11.369392|    0.060611|   -0.000454|
|         682|  -11.930282|  -11.375818|    0.060611|   -0.000454|
|         683|  -11.936737|  -11.382233|    0.060611|   -0.000454|
|         684|  -11.943182|  -11.388640|    0.060611|   -0.000454|
|         685|  -11.949615|  -11.395036|    0.060611|   -0.000454|
|         686|  -11.956040|  -11.401426|    0.060611|   -0.000454|
|         687|  -11.962451|  -11.407804|    0.060611|   -0.000454|
|         688|  -11.968854|  -11.414176|    0.060611|   -0.000454|
|         689|  -11.975248|  -11.420540|    0.060611|   -0.000454|
|         690|  -11.981628|  -11.426893|    0.060611|   -0.000454|
|         691|  -11.988000|  -11.433239|    0.060611|   -0.000454|
|         692|  -11.994362|  -11.439576|    0.060611|   -0.000454|
|         693|  -12.000713|  -11.445904|    0.060611|   -0.000454|
|         694|  -12.007050|  -11.452219|    0.060611|   -0.000454|
|         695|  -12.013385|  -11.458535|    0.060611|   -0.000454|
|         696|  -12.019708|  -11.464839|    0.060611|   -0.000454|
|         697|  -12.026017|  -11.471131|    0.060611|   -0.000454|
|         698|  -12.032322|  -11.477419|    0.060611|   -0.000454|
|         699|  -12.038611|  -11.483693|    0.060611|   -0.000454|
|         700|  -12.044895|  -11.489964|    0.060611|   -0.000454|
|         701|  -12.051170|  -11.496224|    0.060611|   -0.000454|
|         702|  -12.057432|  -11.502477|    0.060611|   -0.000454|
|         703|  -12.063686|  -11.508719|    0.060611|   -0.000454|
|         704|  -12.069937|  -11.514961|    0.060611|   -0.000454|
|         705|  -12.076168|  -11.521184|    0.060611|   -0.000454|
|         706|  -12.082399|  -11.527406|    0.060611|   -0.000454|
|         707|  -12.088614|  -11.533615|    0.060611|   -0.000454|
|         708|  -12.094824|  -11.539820|    0.060611|   -0.000454|
|         709|  -12.101025|  -11.546015|    0.060611|   -0.000454|
|         710|  -12.107217|  -11.552203|    0.060611|   -0.000454|
|         711|  -12.113397|  -11.558379|    0.060611|   -0.000454|
|         712|  -12.119573|  -11.564553|    0.060611|   -0.000454|
|         713|  -12.125743|  -11.570722|    0.060611|   -0.000454|
|         714|  -12.131900|  -11.576876|    0.060612|   -0.000454|
|         715|  -12.138049|  -11.583025|    0.060612|   -0.000454|
|         716|  -12.144188|  -11.589165|    0.060612|   -0.000454|
|         717|  -12.150320|  -11.595296|    0.060612|   -0.000454|
|         718|  -12.156446|  -11.601424|    0.060612|   -0.000454|
|         719|  -12.162563|  -11.607543|    0.060612|   -0.000454|
|         720|  -12.168674|  -11.613657|    0.060612|   -0.000454|
|         721|  -12.174778|  -11.619762|    0.060612|   -0.000454|
|         722|  -12.180868|  -11.625857|    0.060612|   -0.000454|
|         723|  -12.186955|  -11.631947|    0.060612|   -0.000454|
|         724|  -12.193038|  -11.638035|    0.060612|   -0.000454|
|         725|  -12.199107|  -11.644110|    0.060612|   -0.000454|
|         726|  -12.205176|  -11.650183|    0.060612|   -0.000454|
|         727|  -12.211231|  -11.656245|    0.060612|   -0.000454|
|         728|  -12.217282|  -11.662301|    0.060612|   -0.000454|
|         729|  -12.223325|  -11.668349|    0.060612|   -0.000454|
|         730|  -12.229372|  -11.674402|    0.060612|   -0.000454|
|         731|  -12.235396|  -11.680435|    0.060612|   -0.000454|
|         732|  -12.241421|  -11.686466|    0.060612|   -0.000454|
|         733|  -12.247441|  -11.692494|    0.060612|   -0.000454|
|         734|  -12.253449|  -11.698511|    0.060612|   -0.000454|
|         735|  -12.259458|  -11.704526|    0.060612|   -0.000454|
|         736|  -12.265459|  -11.710535|    0.060612|   -0.000454|
|         737|  -12.271452|  -11.716537|    0.060612|   -0.000454|
|         738|  -12.277440|  -11.722534|    0.060612|   -0.000454|
|         739|  -12.283422|  -11.728526|    0.060612|   -0.000454|
|         740|  -12.289399|  -11.734511|    0.060612|   -0.000454|
|         741|  -12.295372|  -11.740495|    0.060612|   -0.000454|
|         742|  -12.301331|  -11.746460|    0.060612|   -0.000454|
|         743|  -12.307290|  -11.752431|    0.060612|   -0.000454|
|         744|  -12.313248|  -11.758400|    0.060612|   -0.000454|
|         745|  -12.319200|  -11.764362|    0.060612|   -0.000454|
|         746|  -12.325137|  -11.770308|    0.060612|   -0.000454|
|         747|  -12.331076|  -11.776261|    0.060612|   -0.000454|
|         748|  -12.337009|  -11.782202|    0.060612|   -0.000454|
|         749|  -12.342941|  -11.788146|    0.060612|   -0.000454|
|         750|  -12.348868|  -11.794081|    0.060612|   -0.000454|
+-----------------------------------------------------------------------+
|        File Writing Summary       |              Filename             |
+-----------------------------------------------------------------------+
|SU2 restart                        |restart_flow.dat                   |
|Paraview                           |flow.vtu                           |
|Paraview surface                   |surface_flow.vtu                   |
|CSV file                           |surface_flow.csv                   |
+-----------------------------------------------------------------------+
+----------------------------------------------------------------+
|  Inner_Iter|    rms[Rho]|   rms[RhoE]|          CL|          CD|
+----------------------------------------------------------------+
|         751|  -12.354786|  -11.800010|    0.060612|   -0.000454|
|         752|  -12.360703|  -11.805938|    0.060612|   -0.000454|
|         753|  -12.366615|  -11.811863|    0.060612|   -0.000454|
|         754|  -12.372520|  -11.817779|    0.060612|   -0.000454|
|         755|  -12.378415|  -11.823684|    0.060612|   -0.000454|
|         756|  -12.384314|  -11.829595|    0.060612|   -0.000454|
|         757|  -12.390212|  -11.835507|    0.060612|   -0.000454|
|         758|  -12.396099|  -11.841404|    0.060612|   -0.000454|
|         759|  -12.401990|  -11.847307|    0.060612|   -0.000454|
|         760|  -12.407873|  -11.853201|    0.060612|   -0.000454|
|         761|  -12.413743|  -11.859085|    0.060612|   -0.000454|
|         762|  -12.419627|  -11.864980|    0.060612|   -0.000454|
|         763|  -12.425497|  -11.870862|    0.060612|   -0.000454|
|         764|  -12.431361|  -11.876738|    0.060612|   -0.000454|
|         765|  -12.437231|  -11.882624|    0.060612|   -0.000454|
|         766|  -12.443094|  -11.888496|    0.060612|   -0.000454|
|         767|  -12.448947|  -11.894361|    0.060612|   -0.000454|
|         768|  -12.454795|  -11.900222|    0.060612|   -0.000454|
|         769|  -12.460654|  -11.906092|    0.060612|   -0.000454|
|         770|  -12.466508|  -11.911959|    0.060612|   -0.000454|
|         771|  -12.472356|  -11.917821|    0.060612|   -0.000454|
|         772|  -12.478192|  -11.923668|    0.060612|   -0.000454|
|         773|  -12.484035|  -11.929526|    0.060612|   -0.000454|
|         774|  -12.489875|  -11.935379|    0.060612|   -0.000454|
|         775|  -12.495715|  -11.941229|    0.060612|   -0.000454|
|         776|  -12.501538|  -11.947066|    0.060612|   -0.000454|
|         777|  -12.507383|  -11.952919|    0.060612|   -0.000454|
|         778|  -12.513208|  -11.958760|    0.060612|   -0.000454|
|         779|  -12.519037|  -11.964602|    0.060612|   -0.000454|
|         780|  -12.524859|  -11.970436|    0.060612|   -0.000454|
|         781|  -12.530683|  -11.976273|    0.060612|   -0.000454|
|         782|  -12.536504|  -11.982105|    0.060612|   -0.000454|
|         783|  -12.542326|  -11.987943|    0.060612|   -0.000454|
|         784|  -12.548144|  -11.993769|    0.060612|   -0.000454|
|         785|  -12.553956|  -11.999595|    0.060612|   -0.000454|
|         786|  -12.559773|  -12.005426|    0.060612|   -0.000454|
|         787|  -12.565584|  -12.011250|    0.060612|   -0.000454|
|         788|  -12.571400|  -12.017077|    0.060613|   -0.000454|
|         789|  -12.577208|  -12.022896|    0.060613|   -0.000454|
|         790|  -12.583010|  -12.028711|    0.060613|   -0.000454|
|         791|  -12.588827|  -12.034541|    0.060613|   -0.000454|
|         792|  -12.594631|  -12.040356|    0.060613|   -0.000454|
|         793|  -12.600433|  -12.046174|    0.060613|   -0.000454|
|         794|  -12.606252|  -12.052002|    0.060613|   -0.000454|
|         795|  -12.612035|  -12.057800|    0.060613|   -0.000454|
|         796|  -12.617859|  -12.063634|    0.060613|   -0.000454|
|         797|  -12.623653|  -12.069442|    0.060613|   -0.000454|
|         798|  -12.629454|  -12.075255|    0.060613|   -0.000454|
|         799|  -12.635254|  -12.081066|    0.060613|   -0.000454|
|         800|  -12.641044|  -12.086871|    0.060613|   -0.000454|
|         801|  -12.646854|  -12.092690|    0.060613|   -0.000454|
|         802|  -12.652660|  -12.098513|    0.060613|   -0.000454|
|         803|  -12.658439|  -12.104303|    0.060613|   -0.000454|
|         804|  -12.664230|  -12.110105|    0.060613|   -0.000454|
|         805|  -12.670057|  -12.115944|    0.060613|   -0.000454|
|         806|  -12.675847|  -12.121746|    0.060613|   -0.000454|
|         807|  -12.681638|  -12.127551|    0.060613|   -0.000454|
|         808|  -12.687442|  -12.133364|    0.060613|   -0.000454|
|         809|  -12.693238|  -12.139168|    0.060613|   -0.000454|
|         810|  -12.699037|  -12.144979|    0.060613|   -0.000454|
|         811|  -12.704835|  -12.150789|    0.060613|   -0.000454|
|         812|  -12.710620|  -12.156586|    0.060613|   -0.000454|
|         813|  -12.716413|  -12.162392|    0.060613|   -0.000454|
|         814|  -12.722221|  -12.168210|    0.060613|   -0.000454|
|         815|  -12.728010|  -12.174008|    0.060613|   -0.000454|
|         816|  -12.733823|  -12.179833|    0.060613|   -0.000454|
|         817|  -12.739605|  -12.185625|    0.060613|   -0.000454|
|         818|  -12.745409|  -12.191444|    0.060613|   -0.000454|
|         819|  -12.751225|  -12.197273|    0.060613|   -0.000454|
|         820|  -12.757015|  -12.203071|    0.060613|   -0.000454|
|         821|  -12.762811|  -12.208875|    0.060613|   -0.000454|
|         822|  -12.768604|  -12.214684|    0.060613|   -0.000454|
|         823|  -12.774412|  -12.220498|    0.060613|   -0.000454|
|         824|  -12.780204|  -12.226305|    0.060613|   -0.000454|
|         825|  -12.786013|  -12.232127|    0.060613|   -0.000454|
|         826|  -12.791830|  -12.237952|    0.060613|   -0.000454|
|         827|  -12.797615|  -12.243740|    0.060613|   -0.000454|
|         828|  -12.803425|  -12.249570|    0.060613|   -0.000454|
|         829|  -12.809246|  -12.255397|    0.060613|   -0.000454|
|         830|  -12.815049|  -12.261210|    0.060613|   -0.000454|
|         831|  -12.820852|  -12.267024|    0.060613|   -0.000454|
|         832|  -12.826668|  -12.272849|    0.060613|   -0.000454|
|         833|  -12.832458|  -12.278652|    0.060613|   -0.000454|
|         834|  -12.838272|  -12.284478|    0.060613|   -0.000454|
|         835|  -12.844072|  -12.290282|    0.060613|   -0.000454|
|         836|  -12.849908|  -12.296133|    0.060613|   -0.000454|
|         837|  -12.855730|  -12.301962|    0.060613|   -0.000454|
|         838|  -12.861531|  -12.307775|    0.060613|   -0.000454|
|         839|  -12.867349|  -12.313607|    0.060613|   -0.000454|
|         840|  -12.873164|  -12.319426|    0.060613|   -0.000454|
|         841|  -12.878964|  -12.325235|    0.060613|   -0.000454|
|         842|  -12.884804|  -12.331086|    0.060613|   -0.000454|
|         843|  -12.890635|  -12.336928|    0.060613|   -0.000454|
|         844|  -12.896452|  -12.342750|    0.060613|   -0.000454|
|         845|  -12.902275|  -12.348589|    0.060613|   -0.000454|
|         846|  -12.908117|  -12.354433|    0.060613|   -0.000454|
|         847|  -12.913919|  -12.360248|    0.060613|   -0.000454|
|         848|  -12.919753|  -12.366088|    0.060613|   -0.000454|
|         849|  -12.925593|  -12.371942|    0.060613|   -0.000454|
|         850|  -12.931442|  -12.377798|    0.060613|   -0.000454|
|         851|  -12.937258|  -12.383621|    0.060613|   -0.000454|
|         852|  -12.943083|  -12.389454|    0.060613|   -0.000454|
|         853|  -12.948929|  -12.395308|    0.060613|   -0.000454|
|         854|  -12.954776|  -12.401161|    0.060613|   -0.000454|
|         855|  -12.960584|  -12.406981|    0.060613|   -0.000454|
|         856|  -12.966443|  -12.412842|    0.060613|   -0.000454|
|         857|  -12.972300|  -12.418713|    0.060613|   -0.000454|
|         858|  -12.978132|  -12.424556|    0.060613|   -0.000454|
|         859|  -12.984003|  -12.430424|    0.060613|   -0.000454|
|         860|  -12.989844|  -12.436274|    0.060613|   -0.000454|
|         861|  -12.995708|  -12.442153|    0.060613|   -0.000454|
|         862|  -13.001548|  -12.448001|    0.060613|   -0.000454|

----------------------------- Solver Exit -------------------------------
All convergence criteria satisfied.
+-----------------------------------------------------------------------+
|      Convergence Field     |     Value    |   Criterion  |  Converged |
+-----------------------------------------------------------------------+
|                    rms[Rho]|      -13.0015|         < -13|         Yes|
+-----------------------------------------------------------------------+
-------------------------------------------------------------------------
+-----------------------------------------------------------------------+
|        File Writing Summary       |              Filename             |
+-----------------------------------------------------------------------+
|SU2 restart                        |restart_flow.dat                   |
|Paraview                           |flow.vtu                           |
|Paraview surface                   |surface_flow.vtu                   |
|CSV file                           |surface_flow.csv                   |
+-----------------------------------------------------------------------+

------------------------- Solver Postprocessing -------------------------
Deleted CNumerics container.
Deleted CIntegration container.
Deleted CSolver container.
Deleted CIteration container.
Deleted CInterpolator container.
Deleted CInterface container.
Deleted CGeometry container.
Deleted CFreeFormDefBox class.
Deleted CSurfaceMovement class.
Deleted CVolumetricMovement class.
Deleted CConfig container.
Deleted nInst container.
Deleted COutput class.
-------------------------------------------------------------------------

------------------------- Exit Success (SU2_CFD) ------------------------

