
-------------------------------------------------------------------------
|    ___ _   _ ___                                                      |
|   / __| | | |_  )   Release 7.0.5 "Blackbird"                         |
|   \__ \ |_| |/ /                                                      |
|   |___/\___//___|   Suite (Computational Fluid Dynamics Code)         |
|                                                                       |
-------------------------------------------------------------------------
| SU2 Project Website: https://su2code.github.io                        |
|                                                                       |
| The SU2 Project is maintained by the SU2 Foundation                   |
| (http://su2foundation.org)                                            |
-------------------------------------------------------------------------
| Copyright 2012-2020, SU2 Contributors                                 |
|                                                                       |
| SU2 is free software; you can redistribute it and/or                  |
| modify it under the terms of the GNU Lesser General Public            |
| License as published by the Free Software Foundation; either          |
| version 2.1 of the License, or (at your option) any later version.    |
|                                                                       |
| SU2 is distributed in the hope that it will be useful,                |
| but WITHOUT ANY WARRANTY; without even the implied warranty of        |
| MERCHANTABILITY or FITNESS FOR A PARTICULAR PURPOSE. See the GNU      |
| Lesser General Public License for more details.                       |
|                                                                       |
| You should have received a copy of the GNU Lesser General Public      |
| License along with SU2. If not, see <http://www.gnu.org/licenses/>.   |
-------------------------------------------------------------------------

Parsing config file for zone 0

----------------- Physical Case Definition ( Zone 0 ) -------------------
Compressible Euler equations.
Mach number: 0.1.
Angle of attack (AoA): 0.5 deg, and angle of sideslip (AoS): 0 deg.
No restart solution, use the values at infinity (freestream).
Non-Dimensional simulation (P=1.0, Rho=1.0, T=1.0 at the farfield).
The reference area is 1 m^2.
The semi-span will be computed using the max y(3D) value.
The reference length is 1 m.
Reference origin for moment evaluation is (0.25, 0, 0).
Surface(s) where the force coefficients are evaluated: airfoil.

Surface(s) plotted in the output file: airfoil.
Surface(s) affected by the design variables: airfoil.
Input mesh file name: mesh_NACA0012_inv.su2

--------------- Space Numerical Integration ( Zone 0 ) ------------------
Jameson-Schmidt-Turkel scheme (2nd order in space) for the flow inviscid terms.
JST viscous coefficients (2nd & 4th): 0.5, 0.02.
The method includes a grid stretching correction (p = 0.3).
Gradient for upwind reconstruction: Green-Gauss.
Gradient for viscous and source terms: Green-Gauss.

--------------- Time Numerical Integration  ( Zone 0 ) ------------------
Local time stepping (steady state simulation).
Euler implicit method for the flow equations.
FGMRES is used for solving the linear system.
Using a LU-SGS preconditioning.
Convergence criteria of the linear solver: 0.0001.
Max number of linear iterations: 2.
V Multigrid Cycle, with 2 multigrid levels.
Damping factor for the residual restriction: 1.
Damping factor for the correction prolongation: 1.
No CFL adaptation.
+-------------------------------------------+
|  MG Level| Presmooth|PostSmooth|CorrectSmo|
+-------------------------------------------+
|         0|         1|         0|         0|
|         1|         2|         0|         0|
|         2|         3|         0|         0|
+-------------------------------------------+
Courant-Friedrichs-Lewy number:       10

------------------ Convergence Criteria  ( Zone 0 ) ---------------------
Maximum number of solver subiterations: 1000.
Begin convergence monitoring at iteration 10.
Residual minimum value: 1e-13.
Cauchy series min. value: 1e-06.
Number of Cauchy elements: 100.
Begin windowed time average at iteration 0.

-------------------- Output Information ( Zone 0 ) ----------------------
Writing solution files every 250 iterations.
Writing the convergence history file every 1 inner iterations.
Writing the screen convergence history every 1 inner iterations.
The tabular file format is CSV (.csv).
Convergence history file name: history_direct.
Forces breakdown file name: forces_breakdown.dat.
Surface file name: surface_flow.
Volume file name: flow.
Restart file name: restart_flow.dat.

------------- Config File Boundary Information ( Zone 0 ) ---------------
+-----------------------------------------------------------------------+
|                        Marker Type|                        Marker Name|
+-----------------------------------------------------------------------+
|                         Euler wall|                            airfoil|
+-----------------------------------------------------------------------+
|                          Far-field|                           farfield|
+-----------------------------------------------------------------------+

-------------------- Output Preprocessing ( Zone 0 ) --------------------
Screen output fields: INNER_ITER, RMS_DENSITY, RMS_ENERGY, LIFT, DRAG
History output group(s): ITER, RMS_RES, AERO_COEFF
Convergence field(s): RMS_DENSITY
Warning: No (valid) fields chosen for time convergence monitoring. Time convergence monitoring inactive.
Volume output fields: COORDINATES, SOLUTION, PRIMITIVE

------------------- Geometry Preprocessing ( Zone 0 ) -------------------
Two dimensional problem.
5233 grid points.
10216 volume elements.
2 surface markers.
200 boundary elements in index 0 (Marker = airfoil).
50 boundary elements in index 1 (Marker = farfield).
10216 triangles.
Setting point connectivity.
Renumbering points (Reverse Cuthill McKee Ordering).
Recomputing point connectivity.
Setting element connectivity.
Checking the numerical grid orientation.
Identifying edges and vertices.
Computing centers of gravity.
Setting the control volume structure.
Area of the computational grid: 1253.25.
Searching for the closest normal neighbors to the surfaces.
Storing a mapping from global to local point index.
Compute the surface curvature.
Max K: 7835.1. Mean K: 34.8252. Standard deviation K: 494.448.
Checking for periodicity.
Computing mesh quality statistics for the dual control volumes.
+--------------------------------------------------------------+
|           Mesh Quality Metric|        Minimum|        Maximum|
+--------------------------------------------------------------+
|    Orthogonality Angle (deg.)|        62.6714|        89.7089|
|     CV Face Area Aspect Ratio|        1.00001|        7.18337|
|           CV Sub-Volume Ratio|        1.00285|        6.47826|
+--------------------------------------------------------------+
Setting the multigrid structure.
+-------------------------------------------+
|  MG Level|       CVs|Aggl. Rate|       CFL|
+-------------------------------------------+
|         0|      5233|    1/1.00|        10|
|         1|      1533|    1/3.41|   8.11871|
|         2|       443|    1/3.46|    6.5465|
+-------------------------------------------+
Finding max control volume width.
Wetted area = 2.03916 m.
Area projection in the x-plane = 0.119981 m, y-plane = 0.999845 m.
Max. coordinate in the x-direction = 1 m, y-direction = 0.0600055 m.
Min. coordinate in the x-direction = 0 m, y-direction = -0.0600055 m.
Checking if Euler & Symmetry markers are straight/plane:
Boundary marker airfoil is NOT a single straight.
Computing wall distances.

-------------------- Solver Preprocessing ( Zone 0 ) --------------------
Inviscid flow: Computing density based on free-stream
temperature and pressure using the ideal gas law.
Force coefficients computed using free-stream values.

-- Models:
+------------------------------------------------------------------------------+
|          Viscosity Model|        Conductivity Model|              Fluid Model|
+------------------------------------------------------------------------------+
|                        -|                         -|             STANDARD_AIR|
+------------------------------------------------------------------------------+
-- Fluid properties:
+------------------------------------------------------------------------------+
|                  Name|    Dim. value|    Ref. value|      Unit|Non-dim. value|
+------------------------------------------------------------------------------+
|          Gas Constant|       287.058|       287.058|  N.m/kg.K|             1|
|      Spec. Heat Ratio|             -|             -|         -|           1.4|
+------------------------------------------------------------------------------+
-- Initial and free-stream conditions:
+------------------------------------------------------------------------------+
|                  Name|    Dim. value|    Ref. value|      Unit|Non-dim. value|
+------------------------------------------------------------------------------+
|       Static Pressure|        101325|        101325|        Pa|             1|
|               Density|       1.22498|       1.22498|    kg/m^3|             1|
|           Temperature|        288.15|        288.15|         K|             1|
|          Total Energy|        207368|       82715.8|   m^2/s^2|         2.507|
|            Velocity-X|       34.0284|       287.603|       m/s|      0.118317|
|            Velocity-Y|      0.296961|       287.603|       m/s|    0.00103254|
|    Velocity Magnitude|       34.0297|       287.603|       m/s|      0.118322|
+------------------------------------------------------------------------------+
|           Mach Number|             -|             -|         -|           0.1|
+------------------------------------------------------------------------------+
Initialize Jacobian structure (Euler). MG level: 0.
Initialize Jacobian structure (Euler). MG level: 1.
Initialize Jacobian structure (Euler). MG level: 2.

------------------- Numerics Preprocessing ( Zone 0 ) -------------------

----------------- Integration Preprocessing ( Zone 0 ) ------------------

------------------- Iteration Preprocessing ( Zone 0 ) ------------------
Euler/Navier-Stokes/RANS fluid iteration.

------------------------------ Begin Solver -----------------------------

Simulation Run using the Single-zone Driver
+----------------------------------------------------------------+
|  Inner_Iter|    rms[Rho]|   rms[RhoE]|          CL|          CD|
+----------------------------------------------------------------+
|           0|   -4.493924|   -3.948988|    0.374227|    1.370685|
|           1|   -4.619474|   -4.068567|    0.240384|   -0.137940|
|           2|   -4.729577|   -4.180929|   -0.080567|   -0.250137|
|           3|   -4.705477|   -4.150831|   -0.175173|    0.060912|
|           4|   -4.651976|   -4.104876|    0.031851|    0.184261|
|           5|   -4.791276|   -4.239802|    0.188646|    0.031366|
|           6|   -4.755882|   -4.208320|    0.061406|   -0.087682|
|           7|   -4.965028|   -4.414234|   -0.096819|   -0.015972|
|           8|   -4.949220|   -4.401689|   -0.025385|    0.080208|
|           9|   -5.161940|   -4.612202|    0.115630|    0.031506|
|          10|   -5.208066|   -4.659404|    0.091054|   -0.049491|
|          11|   -5.314588|   -4.765592|   -0.015593|   -0.017572|
|          12|   -5.436470|   -4.888624|   -0.016217|    0.041373|
|          13|   -5.462441|   -4.912474|    0.060635|    0.017389|
|          14|   -5.614347|   -5.067382|    0.080339|   -0.027111|
|          15|   -5.647440|   -5.095899|    0.032982|   -0.010263|
|          16|   -5.725248|   -5.180002|    0.008255|    0.022685|
|          17|   -5.857365|   -5.305227|    0.036509|    0.010668|
|          18|   -5.865528|   -5.320048|    0.062565|   -0.013835|
|          19|   -6.033894|   -5.482570|    0.049821|   -0.006267|
|          20|   -5.971437|   -5.426516|    0.029364|    0.010728|
|          21|   -6.183553|   -5.633937|    0.034331|    0.005722|
|          22|   -6.075258|   -5.530526|    0.049853|   -0.005996|
|          23|   -6.273009|   -5.726943|    0.050640|   -0.003217|
|          24|   -6.166280|   -5.620888|    0.041518|    0.004489|
|          25|   -6.329547|   -5.785357|    0.039410|    0.002839|
|          26|   -6.292094|   -5.748491|    0.045386|   -0.002503|
|          27|   -6.350132|   -5.809581|    0.049019|   -0.001805|
|          28|   -6.427509|   -5.885230|    0.047063|    0.001867|
|          29|   -6.427032|   -5.884430|    0.044592|    0.001690|
|          30|   -6.494259|   -5.955923|    0.045539|   -0.000992|
|          31|   -6.484910|   -5.946999|    0.048073|   -0.001300|
|          32|   -6.526330|   -5.990036|    0.049149|    0.000561|
|          33|   -6.569944|   -6.033626|    0.048483|    0.001208|
|          34|   -6.561200|   -6.024201|    0.047710|   -0.000015|
|          35|   -6.575967|   -6.040542|    0.048175|   -0.000868|
|          36|   -6.581204|   -6.045805|    0.049369|   -0.000280|
|          37|   -6.595646|   -6.061907|    0.050097|    0.000551|
|          38|   -6.608753|   -6.075960|    0.049936|    0.000406|
|          39|   -6.612155|   -6.079382|    0.049484|   -0.000288|
|          40|   -6.619856|   -6.087320|    0.049536|   -0.000480|
|          41|   -6.627653|   -6.096005|    0.050101|   -0.000089|
|          42|   -6.641231|   -6.111410|    0.050615|    0.000182|
|          43|   -6.655334|   -6.126704|    0.050619|   -0.000024|
|          44|   -6.665791|   -6.137600|    0.050316|   -0.000333|
|          45|   -6.678486|   -6.151250|    0.050208|   -0.000340|
|          46|   -6.690781|   -6.164931|    0.050466|   -0.000154|
|          47|   -6.706229|   -6.181839|    0.050806|   -0.000106|
|          48|   -6.723809|   -6.200276|    0.050883|   -0.000252|
|          49|   -6.737543|   -6.214260|    0.050737|   -0.000369|
|          50|   -6.750308|   -6.227835|    0.050657|   -0.000332|
|          51|   -6.763721|   -6.242418|    0.050801|   -0.000250|
|          52|   -6.777221|   -6.256733|    0.051049|   -0.000260|
|          53|   -6.790405|   -6.270284|    0.051188|   -0.000341|
|          54|   -6.801726|   -6.281773|    0.051192|   -0.000378|
|          55|   -6.812092|   -6.292587|    0.051205|   -0.000339|
|          56|   -6.823057|   -6.304211|    0.051337|   -0.000298|
|          57|   -6.833991|   -6.315653|    0.051544|   -0.000311|
|          58|   -6.844256|   -6.326211|    0.051714|   -0.000349|
|          59|   -6.854182|   -6.336370|    0.051810|   -0.000354|
|          60|   -6.864662|   -6.347127|    0.051891|   -0.000327|
|          61|   -6.876119|   -6.358839|    0.052024|   -0.000308|
|          62|   -6.888097|   -6.370956|    0.052198|   -0.000316|
|          63|   -6.900324|   -6.383196|    0.052356|   -0.000331|
|          64|   -6.913070|   -6.395857|    0.052471|   -0.000330|
|          65|   -6.926611|   -6.409225|    0.052568|   -0.000317|
|          66|   -6.940867|   -6.423228|    0.052681|   -0.000312|
|          67|   -6.955458|   -6.437500|    0.052809|   -0.000320|
|          68|   -6.970269|   -6.451939|    0.052929|   -0.000329|
|          69|   -6.985451|   -6.466707|    0.053025|   -0.000329|
|          70|   -7.000922|   -6.481736|    0.053106|   -0.000328|
|          71|   -7.016365|   -6.496753|    0.053190|   -0.000332|
|          72|   -7.031500|   -6.511509|    0.053280|   -0.000341|
|          73|   -7.046321|   -6.525985|    0.053368|   -0.000349|
|          74|   -7.061022|   -6.540347|    0.053445|   -0.000352|
|          75|   -7.075655|   -6.554643|    0.053516|   -0.000356|
|          76|   -7.090085|   -6.568754|    0.053588|   -0.000362|
|          77|   -7.104237|   -6.582608|    0.053665|   -0.000370|
|          78|   -7.118257|   -6.596327|    0.053746|   -0.000376|
|          79|   -7.132387|   -6.610132|    0.053826|   -0.000379|
|          80|   -7.146756|   -6.624156|    0.053906|   -0.000382|
|          81|   -7.161341|   -6.638398|    0.053988|   -0.000387|
|          82|   -7.176115|   -6.652852|    0.054076|   -0.000391|
|          83|   -7.191123|   -6.667584|    0.054169|   -0.000393|
|          84|   -7.206399|   -6.682645|    0.054265|   -0.000394|
|          85|   -7.221876|   -6.697988|    0.054362|   -0.000395|
|          86|   -7.237423|   -6.713496|    0.054461|   -0.000396|
|          87|   -7.252938|   -6.729070|    0.054564|   -0.000396|
|          88|   -7.268351|   -6.744628|    0.054670|   -0.000396|
|          89|   -7.283579|   -6.760067|    0.054776|   -0.000395|
|          90|   -7.298551|   -6.775281|    0.054883|   -0.000394|
|          91|   -7.313264|   -6.790234|    0.054989|   -0.000393|
|          92|   -7.327801|   -6.804977|    0.055094|   -0.000393|
|          93|   -7.342279|   -6.819606|    0.055198|   -0.000392|
|          94|   -7.356822|   -6.834232|    0.055300|   -0.000391|
|          95|   -7.371568|   -6.849003|    0.055400|   -0.000390|
|          96|   -7.386667|   -6.864096|    0.055497|   -0.000390|
|          97|   -7.402244|   -6.879683|    0.055590|   -0.000390|
|          98|   -7.418353|   -6.895874|    0.055681|   -0.000390|
|          99|   -7.434967|   -6.912695|    0.055769|   -0.000391|
|         100|   -7.451982|   -6.930097|    0.055855|   -0.000391|
|         101|   -7.469224|   -6.947958|    0.055937|   -0.000393|
|         102|   -7.486462|   -6.966088|    0.056017|   -0.000394|
|         103|   -7.503429|   -6.984231|    0.056095|   -0.000396|
|         104|   -7.519844|   -7.002085|    0.056171|   -0.000397|
|         105|   -7.535458|   -7.019343|    0.056245|   -0.000399|
|         106|   -7.550095|   -7.035736|    0.056318|   -0.000401|
|         107|   -7.563695|   -7.051097|    0.056390|   -0.000404|
|         108|   -7.576334|   -7.065392|    0.056461|   -0.000406|
|         109|   -7.588216|   -7.078747|    0.056531|   -0.000408|
|         110|   -7.599639|   -7.091423|    0.056601|   -0.000410|
|         111|   -7.610953|   -7.103777|    0.056671|   -0.000412|
|         112|   -7.622500|   -7.116197|    0.056741|   -0.000414|
|         113|   -7.634565|   -7.129033|    0.056810|   -0.000415|
|         114|   -7.647331|   -7.142548|    0.056880|   -0.000417|
|         115|   -7.660870|   -7.156888|    0.056950|   -0.000418|
|         116|   -7.675141|   -7.172076|    0.057020|   -0.000420|
|         117|   -7.690004|   -7.188011|    0.057089|   -0.000421|
|         118|   -7.705233|   -7.204485|    0.057159|   -0.000422|
|         119|   -7.720552|   -7.221208|    0.057228|   -0.000422|
|         120|   -7.735676|   -7.237853|    0.057297|   -0.000423|
|         121|   -7.750352|   -7.254105|    0.057364|   -0.000424|
|         122|   -7.764400|   -7.269715|    0.057430|   -0.000424|
|         123|   -7.777755|   -7.284557|    0.057495|   -0.000424|
|         124|   -7.790479|   -7.298659|    0.057558|   -0.000425|
|         125|   -7.802754|   -7.312204|    0.057619|   -0.000425|
|         126|   -7.814842|   -7.325495|    0.057679|   -0.000425|
|         127|   -7.827041|   -7.338897|    0.057736|   -0.000426|
|         128|   -7.839627|   -7.352776|    0.057791|   -0.000426|
|         129|   -7.852818|   -7.367436|    0.057845|   -0.000426|
|         130|   -7.866734|   -7.383079|    0.057896|   -0.000427|
|         131|   -7.881390|   -7.399779|    0.057946|   -0.000427|
|         132|   -7.896682|   -7.417461|    0.057994|   -0.000428|
|         133|   -7.912400|   -7.435894|    0.058040|   -0.000428|
|         134|   -7.928243|   -7.454698|    0.058085|   -0.000429|
|         135|   -7.943849|   -7.473365|    0.058128|   -0.000429|
|         136|   -7.958846|   -7.491321|    0.058170|   -0.000430|
|         137|   -7.972918|   -7.508021|    0.058211|   -0.000431|
|         138|   -7.985868|   -7.523069|    0.058250|   -0.000432|
|         139|   -7.997667|   -7.536324|    0.058288|   -0.000433|
|         140|   -8.008458|   -7.547931|    0.058326|   -0.000434|
|         141|   -8.018522|   -7.558290|    0.058362|   -0.000435|
|         142|   -8.028216|   -7.567953|    0.058398|   -0.000436|
|         143|   -8.037901|   -7.577508|    0.058433|   -0.000437|
|         144|   -8.047877|   -7.587468|    0.058467|   -0.000438|
|         145|   -8.058343|   -7.598205|    0.058500|   -0.000438|
|         146|   -8.069375|   -7.609911|    0.058534|   -0.000439|
|         147|   -8.080925|   -7.622586|    0.058567|   -0.000440|
|         148|   -8.092838|   -7.636064|    0.058599|   -0.000441|
|         149|   -8.104883|   -7.650036|    0.058631|   -0.000442|
|         150|   -8.116803|   -7.664110|    0.058662|   -0.000443|
|         151|   -8.128353|   -7.677872|    0.058693|   -0.000444|
|         152|   -8.139356|   -7.690966|    0.058723|   -0.000444|
|         153|   -8.149732|   -7.703160|    0.058753|   -0.000445|
|         154|   -8.159518|   -7.714401|    0.058782|   -0.000446|
|         155|   -8.168858|   -7.724827|    0.058809|   -0.000446|
|         156|   -8.177980|   -7.734742|    0.058836|   -0.000447|
|         157|   -8.187155|   -7.744555|    0.058862|   -0.000448|
|         158|   -8.196656|   -7.754717|    0.058887|   -0.000448|
|         159|   -8.206715|   -7.765643|    0.058912|   -0.000448|
|         160|   -8.217496|   -7.777669|    0.058935|   -0.000449|
|         161|   -8.229071|   -7.791007|    0.058958|   -0.000449|
|         162|   -8.241409|   -7.805722|    0.058980|   -0.000450|
|         163|   -8.254370|   -7.821711|    0.059001|   -0.000450|
|         164|   -8.267712|   -7.838694|    0.059021|   -0.000450|
|         165|   -8.281113|   -7.856222|    0.059041|   -0.000451|
|         166|   -8.294205|   -7.873710|    0.059060|   -0.000451|
|         167|   -8.306631|   -7.890509|    0.059079|   -0.000451|
|         168|   -8.318107|   -7.906017|    0.059097|   -0.000452|
|         169|   -8.328475|   -7.919805|    0.059114|   -0.000452|
|         170|   -8.337734|   -7.931716|    0.059131|   -0.000452|
|         171|   -8.346034|   -7.941895|    0.059148|   -0.000452|
|         172|   -8.353636|   -7.950745|    0.059164|   -0.000453|
|         173|   -8.360858|   -7.958822|    0.059180|   -0.000453|
|         174|   -8.368013|   -7.966718|    0.059196|   -0.000453|
|         175|   -8.375366|   -7.974958|    0.059211|   -0.000454|
|         176|   -8.383099|   -7.983935|    0.059227|   -0.000454|
|         177|   -8.391299|   -7.993873|    0.059242|   -0.000454|
|         178|   -8.399954|   -8.004817|    0.059257|   -0.000454|
|         179|   -8.408967|   -8.016647|    0.059272|   -0.000455|
|         180|   -8.418178|   -8.029096|    0.059287|   -0.000455|
|         181|   -8.427387|   -8.041796|    0.059301|   -0.000455|
|         182|   -8.436394|   -8.054330|    0.059316|   -0.000456|
|         183|   -8.445027|   -8.066303|    0.059331|   -0.000456|
|         184|   -8.453173|   -8.077408|    0.059345|   -0.000456|
|         185|   -8.460792|   -8.087486|    0.059359|   -0.000456|
|         186|   -8.467921|   -8.096547|    0.059373|   -0.000457|
|         187|   -8.474661|   -8.104763|    0.059386|   -0.000457|
|         188|   -8.481156|   -8.112423|    0.059400|   -0.000457|
|         189|   -8.487566|   -8.119879|    0.059413|   -0.000457|
|         190|   -8.494047|   -8.127486|    0.059426|   -0.000458|
|         191|   -8.500725|   -8.135560|    0.059438|   -0.000458|
|         192|   -8.507688|   -8.144332|    0.059450|   -0.000458|
|         193|   -8.514974|   -8.153936|    0.059462|   -0.000458|
|         194|   -8.522569|   -8.164390|    0.059474|   -0.000458|
|         195|   -8.530411|   -8.175595|    0.059485|   -0.000459|
|         196|   -8.538400|   -8.187348|    0.059496|   -0.000459|
|         197|   -8.546411|   -8.199356|    0.059507|   -0.000459|
|         198|   -8.554314|   -8.211281|    0.059517|   -0.000459|
|         199|   -8.561993|   -8.222786|    0.059528|   -0.000459|
|         200|   -8.569364|   -8.233588|    0.059538|   -0.000459|
|         201|   -8.576389|   -8.243512|    0.059547|   -0.000459|
|         202|   -8.583075|   -8.252511|    0.059557|   -0.000459|
|         203|   -8.589471|   -8.260668|    0.059566|   -0.000459|
|         204|   -8.595657|   -8.268172|    0.059576|   -0.000459|
|         205|   -8.601724|   -8.275268|    0.059585|   -0.000459|
|         206|   -8.607763|   -8.282214|    0.059594|   -0.000460|
|         207|   -8.613846|   -8.289238|    0.059603|   -0.000460|
|         208|   -8.620023|   -8.296507|    0.059611|   -0.000460|
|         209|   -8.626311|   -8.304112|    0.059620|   -0.000460|
|         210|   -8.632700|   -8.312060|    0.059629|   -0.000460|
|         211|   -8.639154|   -8.320289|    0.059638|   -0.000460|
|         212|   -8.645618|   -8.328676|    0.059646|   -0.000460|
|         213|   -8.652028|   -8.337060|    0.059655|   -0.000460|
|         214|   -8.658322|   -8.345271|    0.059663|   -0.000460|
|         215|   -8.664446|   -8.353154|    0.059672|   -0.000460|
|         216|   -8.670363|   -8.360591|    0.059680|   -0.000460|
|         217|   -8.676059|   -8.367522|    0.059688|   -0.000460|
|         218|   -8.681538|   -8.373949|    0.059697|   -0.000460|
|         219|   -8.686827|   -8.379931|    0.059705|   -0.000460|
|         220|   -8.691965|   -8.385572|    0.059713|   -0.000460|
|         221|   -8.696998|   -8.391003|    0.059721|   -0.000460|
|         222|   -8.701977|   -8.396358|    0.059728|   -0.000460|
|         223|   -8.706945|   -8.401760|    0.059736|   -0.000460|
|         224|   -8.711938|   -8.407305|    0.059744|   -0.000460|
|         225|   -8.716979|   -8.413050|    0.059751|   -0.000460|
|         226|   -8.722079|   -8.419017|    0.059759|   -0.000460|
|         227|   -8.727237|   -8.425185|    0.059766|   -0.000460|
|         228|   -8.732439|   -8.431503|    0.059773|   -0.000460|
|         229|   -8.737665|   -8.437898|    0.059780|   -0.000460|
|         230|   -8.742893|   -8.444287|    0.059787|   -0.000460|
|         231|   -8.748098|   -8.450589|    0.059794|   -0.000460|
|         232|   -8.753261|   -8.456740|    0.059801|   -0.000460|
|         233|   -8.758367|   -8.462699|    0.059807|   -0.000460|
|         234|   -8.763411|   -8.468455|    0.059814|   -0.000460|
|         235|   -8.768393|   -8.474022|    0.059820|   -0.000460|
|         236|   -8.773320|   -8.479441|    0.059827|   -0.000460|
|         237|   -8.778203|   -8.484763|    0.059833|   -0.000460|
|         238|   -8.783053|   -8.490047|    0.059840|   -0.000460|
|         239|   -8.787882|   -8.495345|    0.059846|   -0.000460|
|         240|   -8.792698|   -8.500701|    0.059852|   -0.000460|
|         241|   -8.797505|   -8.506136|    0.059859|   -0.000460|
|         242|   -8.802302|   -8.511655|    0.059865|   -0.000460|
|         243|   -8.807084|   -8.517244|    0.059871|   -0.000460|
|         244|   -8.811841|   -8.522872|    0.059877|   -0.000460|
|         245|   -8.816563|   -8.528498|    0.059884|   -0.000460|
|         246|   -8.821236|   -8.534075|    0.059890|   -0.000460|
|         247|   -8.825850|   -8.539559|    0.059896|   -0.000460|
|         248|   -8.830396|   -8.544913|    0.059902|   -0.000460|
|         249|   -8.834869|   -8.550113|    0.059908|   -0.000460|
|         250|   -8.839267|   -8.555152|    0.059915|   -0.000460|
+-----------------------------------------------------------------------+
|        File Writing Summary       |              Filename             |
+-----------------------------------------------------------------------+
|SU2 restart                        |restart_flow.dat                   |
|Paraview                           |flow.vtu                           |
|Paraview surface                   |surface_flow.vtu                   |
|CSV file                           |surface_flow.csv                   |
+-----------------------------------------------------------------------+
+----------------------------------------------------------------+
|  Inner_Iter|    rms[Rho]|   rms[RhoE]|          CL|          CD|
+----------------------------------------------------------------+
|         251|   -8.843595|   -8.560036|    0.059921|   -0.000460|
|         252|   -8.847858|   -8.564787|    0.059927|   -0.000460|
|         253|   -8.852068|   -8.569441|    0.059933|   -0.000460|
|         254|   -8.856237|   -8.574037|    0.059939|   -0.000460|
|         255|   -8.860379|   -8.578619|    0.059945|   -0.000460|
|         256|   -8.864506|   -8.583229|    0.059951|   -0.000460|
|         257|   -8.868631|   -8.587902|    0.059957|   -0.000460|
|         258|   -8.872763|   -8.592665|    0.059963|   -0.000460|
|         259|   -8.876908|   -8.597534|    0.059968|   -0.000459|
|         260|   -8.881071|   -8.602516|    0.059974|   -0.000459|
|         261|   -8.885253|   -8.607605|    0.059980|   -0.000459|
|         262|   -8.889452|   -8.612791|    0.059986|   -0.000459|
|         263|   -8.893665|   -8.618056|    0.059991|   -0.000459|
|         264|   -8.897888|   -8.623382|    0.059997|   -0.000459|
|         265|   -8.902117|   -8.628747|    0.060002|   -0.000459|
|         266|   -8.906348|   -8.634137|    0.060008|   -0.000459|
|         267|   -8.910577|   -8.639536|    0.060013|   -0.000459|
|         268|   -8.914803|   -8.644936|    0.060019|   -0.000459|
|         269|   -8.919023|   -8.650333|    0.060024|   -0.000459|
|         270|   -8.923238|   -8.655725|    0.060029|   -0.000459|
|         271|   -8.927447|   -8.661113|    0.060035|   -0.000459|
|         272|   -8.931651|   -8.666501|    0.060040|   -0.000459|
|         273|   -8.935852|   -8.671889|    0.060045|   -0.000459|
|         274|   -8.940050|   -8.677278|    0.060051|   -0.000459|
|         275|   -8.944245|   -8.682666|    0.060056|   -0.000459|
|         276|   -8.948436|   -8.688049|    0.060061|   -0.000458|
|         277|   -8.952624|   -8.693418|    0.060067|   -0.000458|
|         278|   -8.956808|   -8.698766|    0.060072|   -0.000458|
|         279|   -8.960985|   -8.704083|    0.060077|   -0.000458|
|         280|   -8.965156|   -8.709362|    0.060082|   -0.000458|
|         281|   -8.969319|   -8.714596|    0.060088|   -0.000458|
|         282|   -8.973476|   -8.719781|    0.060093|   -0.000458|
|         283|   -8.977626|   -8.724918|    0.060098|   -0.000458|
|         284|   -8.981773|   -8.730012|    0.060103|   -0.000458|
|         285|   -8.985918|   -8.735070|    0.060108|   -0.000458|
|         286|   -8.990066|   -8.740106|    0.060113|   -0.000458|
|         287|   -8.994221|   -8.745134|    0.060118|   -0.000458|
|         288|   -8.998388|   -8.750169|    0.060123|   -0.000458|
|         289|   -9.002571|   -8.755230|    0.060128|   -0.000458|
|         290|   -9.006775|   -8.760330|    0.060133|   -0.000458|
|         291|   -9.011004|   -8.765485|    0.060138|   -0.000458|
|         292|   -9.015262|   -8.770705|    0.060143|   -0.000458|
|         293|   -9.019551|   -8.775999|    0.060148|   -0.000458|
|         294|   -9.023873|   -8.781371|    0.060153|   -0.000457|
|         295|   -9.028229|   -8.786822|    0.060158|   -0.000457|
|         296|   -9.032620|   -8.792351|    0.060163|   -0.000457|
|         297|   -9.037043|   -8.797955|    0.060168|   -0.000457|
|         298|   -9.041499|   -8.803626|    0.060172|   -0.000457|
|         299|   -9.045987|   -8.809359|    0.060177|   -0.000457|
|         300|   -9.050503|   -8.815146|    0.060182|   -0.000457|
|         301|   -9.055048|   -8.820978|    0.060187|   -0.000457|
|         302|   -9.059619|   -8.826848|    0.060191|   -0.000457|
|         303|   -9.064215|   -8.832748|    0.060196|   -0.000457|
|         304|   -9.068835|   -8.838672|    0.060201|   -0.000457|
|         305|   -9.073477|   -8.844611|    0.060205|   -0.000457|
|         306|   -9.078141|   -8.850560|    0.060210|   -0.000457|
|         307|   -9.082826|   -8.856513|    0.060215|   -0.000457|
|         308|   -9.087530|   -8.862462|    0.060219|   -0.000457|
|         309|   -9.092254|   -8.868403|    0.060224|   -0.000457|
|         310|   -9.096996|   -8.874329|    0.060228|   -0.000457|
|         311|   -9.101757|   -8.880237|    0.060233|   -0.000457|
|         312|   -9.106536|   -8.886123|    0.060237|   -0.000456|
|         313|   -9.111333|   -8.891984|    0.060242|   -0.000456|
|         314|   -9.116149|   -8.897819|    0.060246|   -0.000456|
|         315|   -9.120983|   -8.903630|    0.060251|   -0.000456|
|         316|   -9.125837|   -8.909418|    0.060255|   -0.000456|
|         317|   -9.130713|   -8.915190|    0.060259|   -0.000456|
|         318|   -9.135611|   -8.920950|    0.060264|   -0.000456|
|         319|   -9.140534|   -8.926708|    0.060268|   -0.000456|
|         320|   -9.145485|   -8.932471|    0.060272|   -0.000456|
|         321|   -9.150463|   -8.938248|    0.060277|   -0.000456|
|         322|   -9.155473|   -8.944049|    0.060281|   -0.000456|
|         323|   -9.160515|   -8.949883|    0.060285|   -0.000456|
|         324|   -9.165592|   -8.955758|    0.060289|   -0.000456|
|         325|   -9.170705|   -8.961681|    0.060294|   -0.000456|
|         326|   -9.175856|   -8.967657|    0.060298|   -0.000456|
|         327|   -9.181045|   -8.973689|    0.060302|   -0.000456|
|         328|   -9.186273|   -8.979780|    0.060306|   -0.000456|
|         329|   -9.191540|   -8.985931|    0.060310|   -0.000456|
|         330|   -9.196845|   -8.992138|    0.060314|   -0.000456|
|         331|   -9.202189|   -8.998401|    0.060318|   -0.000456|
|         332|   -9.207571|   -9.004715|    0.060322|   -0.000456|
|         333|   -9.212989|   -9.011075|    0.060326|   -0.000456|
|         334|   -9.218444|   -9.017476|    0.060330|   -0.000456|
|         335|   -9.223934|   -9.023912|    0.060334|   -0.000456|
|         336|   -9.229458|   -9.030377|    0.060338|   -0.000455|
|         337|   -9.235015|   -9.036865|    0.060342|   -0.000455|
|         338|   -9.240605|   -9.043368|    0.060346|   -0.000455|
|         339|   -9.246226|   -9.049881|    0.060349|   -0.000455|
|         340|   -9.251878|   -9.056397|    0.060353|   -0.000455|
|         341|   -9.257560|   -9.062911|    0.060357|   -0.000455|
|         342|   -9.263271|   -9.069418|    0.060361|   -0.000455|
|         343|   -9.269012|   -9.075914|    0.060364|   -0.000455|
|         344|   -9.274780|   -9.082395|    0.060368|   -0.000455|
|         345|   -9.280578|   -9.088859|    0.060372|   -0.000455|
|         346|   -9.286403|   -9.095304|    0.060375|   -0.000455|
|         347|   -9.292258|   -9.101731|    0.060379|   -0.000455|
|         348|   -9.298141|   -9.108142|    0.060383|   -0.000455|
|         349|   -9.304055|   -9.114539|    0.060386|   -0.000455|
|         350|   -9.309999|   -9.120925|    0.060390|   -0.000455|
|         351|   -9.315974|   -9.127307|    0.060393|   -0.000455|
|         352|   -9.321981|   -9.133688|    0.060397|   -0.000455|
|         353|   -9.328023|   -9.140077|    0.060400|   -0.000455|
|         354|   -9.334098|   -9.146478|    0.060403|   -0.000455|
|         355|   -9.340210|   -9.152898|    0.060407|   -0.000455|
|         356|   -9.346358|   -9.159342|    0.060410|   -0.000455|
|         357|   -9.352543|   -9.165817|    0.060414|   -0.000455|
|         358|   -9.358766|   -9.172325|    0.060417|   -0.000455|
|         359|   -9.365028|   -9.178871|    0.060420|   -0.000455|
|         360|   -9.371329|   -9.185456|    0.060423|   -0.000455|
|         361|   -9.377668|   -9.192081|    0.060427|   -0.000455|
|         362|   -9.384046|   -9.198747|    0.060430|   -0.000455|
|         363|   -9.390462|   -9.205451|    0.060433|   -0.000455|
|         364|   -9.396915|   -9.212192|    0.060436|   -0.000455|
|         365|   -9.403406|   -9.218967|    0.060439|   -0.000455|
|         366|   -9.409933|   -9.225771|    0.060442|   -0.000455|
|         367|   -9.416496|   -9.232600|    0.060445|   -0.000455|
|         368|   -9.423093|   -9.239450|    0.060448|   -0.000455|
|         369|   -9.429725|   -9.246315|    0.060451|   -0.000455|
|         370|   -9.436389|   -9.253190|    0.060454|   -0.000455|
|         371|   -9.443086|   -9.260071|    0.060457|   -0.000455|
|         372|   -9.449815|   -9.266953|    0.060460|   -0.000455|
|         373|   -9.456574|   -9.273830|    0.060463|   -0.000455|
|         374|   -9.463363|   -9.280700|    0.060466|   -0.000454|
|         375|   -9.470183|   -9.287558|    0.060469|   -0.000454|
|         376|   -9.477032|   -9.294403|    0.060472|   -0.000454|
|         377|   -9.483910|   -9.301232|    0.060475|   -0.000454|
|         378|   -9.490818|   -9.308044|    0.060477|   -0.000454|
|         379|   -9.497755|   -9.314841|    0.060480|   -0.000454|
|         380|   -9.504721|   -9.321621|    0.060483|   -0.000454|
|         381|   -9.511717|   -9.328389|    0.060486|   -0.000454|
|         382|   -9.518743|   -9.335144|    0.060488|   -0.000454|
|         383|   -9.525800|   -9.341892|    0.060491|   -0.000454|
|         384|   -9.532889|   -9.348635|    0.060494|   -0.000454|
|         385|   -9.540009|   -9.355378|    0.060496|   -0.000454|
|         386|   -9.547161|   -9.362124|    0.060499|   -0.000454|
|         387|   -9.554346|   -9.368878|    0.060501|   -0.000454|
|         388|   -9.561565|   -9.375643|    0.060504|   -0.000454|
|         389|   -9.568817|   -9.382423|    0.060506|   -0.000454|
|         390|   -9.576104|   -9.389221|    0.060509|   -0.000454|
|         391|   -9.583424|   -9.396038|    0.060511|   -0.000454|
|         392|   -9.590780|   -9.402877|    0.060514|   -0.000454|
|         393|   -9.598169|   -9.409737|    0.060516|   -0.000454|
|         394|   -9.605593|   -9.416620|    0.060518|   -0.000454|
|         395|   -9.613050|   -9.423524|    0.060521|   -0.000454|
|         396|   -9.620541|   -9.430448|    0.060523|   -0.000454|
|         397|   -9.628064|   -9.437389|    0.060525|   -0.000454|
|         398|   -9.635620|   -9.444346|    0.060528|   -0.000454|
|         399|   -9.643207|   -9.451314|    0.060530|   -0.000454|
|         400|   -9.650825|   -9.458292|    0.060532|   -0.000454|
|         401|   -9.658473|   -9.465274|    0.060534|   -0.000454|
|         402|   -9.666150|   -9.472259|    0.060536|   -0.000454|
|         403|   -9.673856|   -9.479242|    0.060539|   -0.000454|
|         404|   -9.681589|   -9.486219|    0.060541|   -0.000454|
|         405|   -9.689350|   -9.493189|    0.060543|   -0.000454|
|         406|   -9.697138|   -9.500148|    0.060545|   -0.000454|
|         407|   -9.704952|   -9.507095|    0.060547|   -0.000454|
|         408|   -9.712793|   -9.514028|    0.060549|   -0.000454|
|         409|   -9.720658|   -9.520945|    0.060551|   -0.000454|
|         410|   -9.728550|   -9.527847|    0.060553|   -0.000454|
|         411|   -9.736467|   -9.534733|    0.060555|   -0.000454|
|         412|   -9.744409|   -9.541605|    0.060557|   -0.000454|
|         413|   -9.752377|   -9.548463|    0.060559|   -0.000454|
|         414|   -9.760370|   -9.555310|    0.060561|   -0.000454|
|         415|   -9.768390|   -9.562147|    0.060562|   -0.000454|
|         416|   -9.776435|   -9.568976|    0.060564|   -0.000454|
|         417|   -9.784507|   -9.575800|    0.060566|   -0.000454|
|         418|   -9.792606|   -9.582621|    0.060568|   -0.000454|
|         419|   -9.800731|   -9.589442|    0.060570|   -0.000454|
|         420|   -9.808883|   -9.596265|    0.060571|   -0.000454|
|         421|   -9.817062|   -9.603092|    0.060573|   -0.000454|
|         422|   -9.825269|   -9.609925|    0.060575|   -0.000454|
|         423|   -9.833502|   -9.616764|    0.060577|   -0.000454|
|         424|   -9.841763|   -9.623610|    0.060578|   -0.000454|
|         425|   -9.850050|   -9.630465|    0.060580|   -0.000454|
|         426|   -9.858363|   -9.637328|    0.060582|   -0.000454|
|         427|   -9.866702|   -9.644198|    0.060583|   -0.000454|
|         428|   -9.875067|   -9.651074|    0.060585|   -0.000454|
|         429|   -9.883457|   -9.657956|    0.060586|   -0.000454|
|         430|   -9.891872|   -9.664842|    0.060588|   -0.000454|
|         431|   -9.900310|   -9.671731|    0.060590|   -0.000454|
|         432|   -9.908772|   -9.678620|    0.060591|   -0.000454|
|         433|   -9.917255|   -9.685507|    0.060593|   -0.000454|
|         434|   -9.925761|   -9.692392|    0.060594|   -0.000454|
|         435|   -9.934288|   -9.699271|    0.060595|   -0.000454|
|         436|   -9.942835|   -9.706144|    0.060597|   -0.000454|
|         437|   -9.951403|   -9.713010|    0.060598|   -0.000454|
|         438|   -9.959990|   -9.719866|    0.060600|   -0.000454|
|         439|   -9.968595|   -9.726711|    0.060601|   -0.000454|
|         440|   -9.977220|   -9.733547|    0.060602|   -0.000454|
|         441|   -9.985862|   -9.740371|    0.060604|   -0.000454|
|         442|   -9.994523|   -9.747185|    0.060605|   -0.000454|
|         443|  -10.003201|   -9.753988|    0.060606|   -0.000454|
|         444|  -10.011897|   -9.760781|    0.060608|   -0.000454|
|         445|  -10.020610|   -9.767566|    0.060609|   -0.000454|
|         446|  -10.029341|   -9.774342|    0.060610|   -0.000454|
|         447|  -10.038088|   -9.781111|    0.060612|   -0.000454|
|         448|  -10.046853|   -9.787875|    0.060613|   -0.000454|
|         449|  -10.055635|   -9.794635|    0.060614|   -0.000454|
|         450|  -10.064434|   -9.801391|    0.060615|   -0.000454|
|         451|  -10.073249|   -9.808146|    0.060616|   -0.000454|
|         452|  -10.082082|   -9.814899|    0.060618|   -0.000454|
|         453|  -10.090931|   -9.821653|    0.060619|   -0.000454|
|         454|  -10.099796|   -9.828408|    0.060620|   -0.000454|
|         455|  -10.108678|   -9.835165|    0.060621|   -0.000454|
|         456|  -10.117575|   -9.841923|    0.060622|   -0.000454|
|         457|  -10.126488|   -9.848683|    0.060623|   -0.000454|
|         458|  -10.135415|   -9.855445|    0.060624|   -0.000454|
|         459|  -10.144357|   -9.862209|    0.060625|   -0.000454|
|         460|  -10.153312|   -9.868975|    0.060626|   -0.000454|
|         461|  -10.162281|   -9.875741|    0.060627|   -0.000454|
|         462|  -10.171263|   -9.882507|    0.060628|   -0.000454|
|         463|  -10.180256|   -9.889273|    0.060629|   -0.000454|
|         464|  -10.189261|   -9.896038|    0.060630|   -0.000454|
|         465|  -10.198277|   -9.902801|    0.060631|   -0.000454|
|         466|  -10.207302|   -9.909561|    0.060632|   -0.000454|
|         467|  -10.216338|   -9.916319|    0.060633|   -0.000454|
|         468|  -10.225382|   -9.923073|    0.060634|   -0.000454|
|         469|  -10.234434|   -9.929823|    0.060635|   -0.000454|
|         470|  -10.243495|   -9.936569|    0.060636|   -0.000454|
|         471|  -10.252562|   -9.943310|    0.060637|   -0.000454|
|         472|  -10.261637|   -9.950047|    0.060638|   -0.000454|
|         473|  -10.270718|   -9.956781|    0.060639|   -0.000454|
|         474|  -10.279805|   -9.963510|    0.060639|   -0.000454|
|         475|  -10.288898|   -9.970236|    0.060640|   -0.000454|
|         476|  -10.297996|   -9.976959|    0.060641|   -0.000454|
|         477|  -10.307100|   -9.983679|    0.060642|   -0.000454|
|         478|  -10.316208|   -9.990397|    0.060643|   -0.000454|
|         479|  -10.325321|   -9.997114|    0.060644|   -0.000454|
|         480|  -10.334438|  -10.003830|    0.060644|   -0.000454|
|         481|  -10.343559|  -10.010547|    0.060645|   -0.000454|
|         482|  -10.352683|  -10.017263|    0.060646|   -0.000454|
|         483|  -10.361811|  -10.023980|    0.060647|   -0.000454|
|         484|  -10.370942|  -10.030699|    0.060647|   -0.000454|
|         485|  -10.380076|  -10.037419|    0.060648|   -0.000454|
|         486|  -10.389212|  -10.044142|    0.060649|   -0.000454|
|         487|  -10.398350|  -10.050866|    0.060650|   -0.000454|
|         488|  -10.407488|  -10.057593|    0.060650|   -0.000454|
|         489|  -10.416628|  -10.064321|    0.060651|   -0.000454|
|         490|  -10.425768|  -10.071052|    0.060652|   -0.000454|
|         491|  -10.434908|  -10.077785|    0.060652|   -0.000454|
|         492|  -10.444047|  -10.084520|    0.060653|   -0.000454|
|         493|  -10.453185|  -10.091256|    0.060654|   -0.000454|
|         494|  -10.462320|  -10.097994|    0.060654|   -0.000454|
|         495|  -10.471454|  -10.104734|    0.060655|   -0.000454|
|         496|  -10.480584|  -10.111474|    0.060655|   -0.000454|
|         497|  -10.489710|  -10.118215|    0.060656|   -0.000454|
|         498|  -10.498833|  -10.124957|    0.060657|   -0.000454|
|         499|  -10.507951|  -10.131700|    0.060657|   -0.000454|
|         500|  -10.517063|  -10.138443|    0.060658|   -0.000454|
+-----------------------------------------------------------------------+
|        File Writing Summary       |              Filename             |
+-----------------------------------------------------------------------+
|SU2 restart                        |restart_flow.dat                   |
|Paraview                           |flow.vtu                           |
|Paraview surface                   |surface_flow.vtu                   |
|CSV file                           |surface_flow.csv                   |
+-----------------------------------------------------------------------+
+----------------------------------------------------------------+
|  Inner_Iter|    rms[Rho]|   rms[RhoE]|          CL|          CD|
+----------------------------------------------------------------+
|         501|  -10.526171|  -10.145187|    0.060658|   -0.000454|
|         502|  -10.535272|  -10.151931|    0.060659|   -0.000454|
|         503|  -10.544367|  -10.158677|    0.060659|   -0.000454|
|         504|  -10.553455|  -10.165423|    0.060660|   -0.000454|
|         505|  -10.562536|  -10.172170|    0.060661|   -0.000454|
|         506|  -10.571610|  -10.178918|    0.060661|   -0.000454|
|         507|  -10.580676|  -10.185668|    0.060662|   -0.000454|
|         508|  -10.589733|  -10.192420|    0.060662|   -0.000454|
|         509|  -10.598783|  -10.199174|    0.060663|   -0.000454|
|         510|  -10.607824|  -10.205930|    0.060663|   -0.000454|
|         511|  -10.616856|  -10.212688|    0.060664|   -0.000454|
|         512|  -10.625878|  -10.219449|    0.060664|   -0.000454|
|         513|  -10.634891|  -10.226213|    0.060665|   -0.000454|
|         514|  -10.643895|  -10.232981|    0.060665|   -0.000454|
|         515|  -10.652888|  -10.239751|    0.060665|   -0.000454|
|         516|  -10.661871|  -10.246525|    0.060666|   -0.000454|
|         517|  -10.670843|  -10.253302|    0.060666|   -0.000454|
|         518|  -10.679803|  -10.260083|    0.060667|   -0.000454|
|         519|  -10.688752|  -10.266867|    0.060667|   -0.000454|
|         520|  -10.697690|  -10.273654|    0.060668|   -0.000454|
|         521|  -10.706614|  -10.280444|    0.060668|   -0.000454|
|         522|  -10.715527|  -10.287238|    0.060668|   -0.000454|
|         523|  -10.724426|  -10.294035|    0.060669|   -0.000454|
|         524|  -10.733312|  -10.300835|    0.060669|   -0.000454|
|         525|  -10.742184|  -10.307638|    0.060670|   -0.000454|
|         526|  -10.751042|  -10.314444|    0.060670|   -0.000454|
|         527|  -10.759886|  -10.321252|    0.060670|   -0.000454|
|         528|  -10.768715|  -10.328064|    0.060671|   -0.000454|
|         529|  -10.777529|  -10.334878|    0.060671|   -0.000454|
|         530|  -10.786327|  -10.341694|    0.060672|   -0.000454|
|         531|  -10.795110|  -10.348513|    0.060672|   -0.000454|
|         532|  -10.803878|  -10.355335|    0.060672|   -0.000454|
|         533|  -10.812629|  -10.362160|    0.060673|   -0.000454|
|         534|  -10.821365|  -10.368987|    0.060673|   -0.000454|
|         535|  -10.830084|  -10.375817|    0.060673|   -0.000454|
|         536|  -10.838786|  -10.382650|    0.060674|   -0.000454|
|         537|  -10.847473|  -10.389486|    0.060674|   -0.000454|
|         538|  -10.856142|  -10.396324|    0.060674|   -0.000454|
|         539|  -10.864795|  -10.403166|    0.060675|   -0.000454|
|         540|  -10.873430|  -10.410011|    0.060675|   -0.000454|
|         541|  -10.882049|  -10.416859|    0.060675|   -0.000454|
|         542|  -10.890650|  -10.423709|    0.060675|   -0.000454|
|         543|  -10.899234|  -10.430564|    0.060676|   -0.000454|
|         544|  -10.907801|  -10.437421|    0.060676|   -0.000454|
|         545|  -10.916350|  -10.444282|    0.060676|   -0.000454|
|         546|  -10.924882|  -10.451145|    0.060677|   -0.000454|
|         547|  -10.933395|  -10.458013|    0.060677|   -0.000454|
|         548|  -10.941891|  -10.464882|    0.060677|   -0.000454|
|         549|  -10.950369|  -10.471755|    0.060677|   -0.000454|
|         550|  -10.958829|  -10.478631|    0.060678|   -0.000454|
|         551|  -10.967270|  -10.485510|    0.060678|   -0.000454|
|         552|  -10.975693|  -10.492391|    0.060678|   -0.000454|
|         553|  -10.984097|  -10.499275|    0.060678|   -0.000454|
|         554|  -10.992483|  -10.506161|    0.060679|   -0.000454|
|         555|  -11.000850|  -10.513050|    0.060679|   -0.000454|
|         556|  -11.009199|  -10.519942|    0.060679|   -0.000454|
|         557|  -11.017529|  -10.526835|    0.060679|   -0.000454|
|         558|  -11.025840|  -10.533732|    0.060680|   -0.000454|
|         559|  -11.034132|  -10.540630|    0.060680|   -0.000454|
|         560|  -11.042405|  -10.547530|    0.060680|   -0.000454|
|         561|  -11.050659|  -10.554432|    0.060680|   -0.000454|
|         562|  -11.058895|  -10.561337|    0.060681|   -0.000454|
|         563|  -11.067112|  -10.568243|    0.060681|   -0.000454|
|         564|  -11.075309|  -10.575151|    0.060681|   -0.000454|
|         565|  -11.083489|  -10.582062|    0.060681|   -0.000454|
|         566|  -11.091649|  -10.588974|    0.060681|   -0.000454|
|         567|  -11.099791|  -10.595888|    0.060682|   -0.000454|
|         568|  -11.107915|  -10.602804|    0.060682|   -0.000454|
|         569|  -11.116020|  -10.609722|    0.060682|   -0.000454|
|         570|  -11.124107|  -10.616641|    0.060682|   -0.000454|
|         571|  -11.132176|  -10.623562|    0.060682|   -0.000454|
|         572|  -11.140226|  -10.630485|    0.060682|   -0.000454|
|         573|  -11.148258|  -10.637410|    0.060683|   -0.000454|
|         574|  -11.156272|  -10.644336|    0.060683|   -0.000454|
|         575|  -11.164267|  -10.651263|    0.060683|   -0.000454|
|         576|  -11.172244|  -10.658190|    0.060683|   -0.000454|
|         577|  -11.180203|  -10.665120|    0.060683|   -0.000454|
|         578|  -11.188145|  -10.672051|    0.060684|   -0.000454|
|         579|  -11.196069|  -10.678983|    0.060684|   -0.000454|
|         580|  -11.203973|  -10.685914|    0.060684|   -0.000454|
|         581|  -11.211860|  -10.692846|    0.060684|   -0.000454|
|         582|  -11.219730|  -10.699779|    0.060684|   -0.000454|
|         583|  -11.227581|  -10.706712|    0.060684|   -0.000454|
|         584|  -11.235414|  -10.713645|    0.060684|   -0.000454|
|         585|  -11.243229|  -10.720578|    0.060685|   -0.000454|
|         586|  -11.251027|  -10.727512|    0.060685|   -0.000454|
|         587|  -11.258807|  -10.734444|    0.060685|   -0.000454|
|         588|  -11.266569|  -10.741376|    0.060685|   -0.000454|
|         589|  -11.274314|  -10.748308|    0.060685|   -0.000454|
|         590|  -11.282042|  -10.755240|    0.060685|   -0.000454|
|         591|  -11.289752|  -10.762170|    0.060685|   -0.000454|
|         592|  -11.297445|  -10.769101|    0.060686|   -0.000454|
|         593|  -11.305121|  -10.776030|    0.060686|   -0.000454|
|         594|  -11.312781|  -10.782958|    0.060686|   -0.000454|
|         595|  -11.320424|  -10.789886|    0.060686|   -0.000454|
|         596|  -11.328049|  -10.796812|    0.060686|   -0.000454|
|         597|  -11.335660|  -10.803739|    0.060686|   -0.000454|
|         598|  -11.343252|  -10.810662|    0.060686|   -0.000454|
|         599|  -11.350830|  -10.817586|    0.060686|   -0.000454|
|         600|  -11.358391|  -10.824507|    0.060687|   -0.000454|
|         601|  -11.365937|  -10.831429|    0.060687|   -0.000454|
|         602|  -11.373465|  -10.838346|    0.060687|   -0.000454|
|         603|  -11.380979|  -10.845264|    0.060687|   -0.000454|
|         604|  -11.388477|  -10.852179|    0.060687|   -0.000454|
|         605|  -11.395961|  -10.859094|    0.060687|   -0.000454|
|         606|  -11.403427|  -10.866004|    0.060687|   -0.000454|
|         607|  -11.410879|  -10.872913|    0.060687|   -0.000454|
|         608|  -11.418316|  -10.879821|    0.060687|   -0.000454|
|         609|  -11.425735|  -10.886724|    0.060688|   -0.000454|
|         610|  -11.433140|  -10.893625|    0.060688|   -0.000454|
|         611|  -11.440531|  -10.900525|    0.060688|   -0.000454|
|         612|  -11.447906|  -10.907421|    0.060688|   -0.000454|
|         613|  -11.455265|  -10.914312|    0.060688|   -0.000454|
|         614|  -11.462609|  -10.921201|    0.060688|   -0.000454|
|         615|  -11.469938|  -10.928086|    0.060688|   -0.000454|
|         616|  -11.477252|  -10.934968|    0.060688|   -0.000454|
|         617|  -11.484550|  -10.941844|    0.060688|   -0.000454|
|         618|  -11.491835|  -10.948719|    0.060688|   -0.000454|
|         619|  -11.499104|  -10.955589|    0.060688|   -0.000454|
|         620|  -11.506357|  -10.962452|    0.060689|   -0.000454|
|         621|  -11.513596|  -10.969312|    0.060689|   -0.000454|
|         622|  -11.520822|  -10.976170|    0.060689|   -0.000454|
|         623|  -11.528031|  -10.983021|    0.060689|   -0.000454|
|         624|  -11.535227|  -10.989868|    0.060689|   -0.000454|
|         625|  -11.542409|  -10.996711|    0.060689|   -0.000454|
|         626|  -11.549577|  -11.003549|    0.060689|   -0.000454|
|         627|  -11.556730|  -11.010381|    0.060689|   -0.000454|
|         628|  -11.563869|  -11.017208|    0.060689|   -0.000454|
|         629|  -11.570995|  -11.024031|    0.060689|   -0.000454|
|         630|  -11.578107|  -11.030849|    0.060689|   -0.000454|
|         631|  -11.585205|  -11.037660|    0.060689|   -0.000454|
|         632|  -11.592290|  -11.044468|    0.060690|   -0.000454|
|         633|  -11.599360|  -11.051267|    0.060690|   -0.000454|
|         634|  -11.606417|  -11.058063|    0.060690|   -0.000454|
|         635|  -11.613463|  -11.064855|    0.060690|   -0.000454|
|         636|  -11.620494|  -11.071639|    0.060690|   -0.000454|
|         637|  -11.627512|  -11.078418|    0.060690|   -0.000454|
|         638|  -11.634517|  -11.085192|    0.060690|   -0.000454|
|         639|  -11.641508|  -11.091957|    0.060690|   -0.000454|
|         640|  -11.648485|  -11.098716|    0.060690|   -0.000454|
|         641|  -11.655451|  -11.105471|    0.060690|   -0.000454|
|         642|  -11.662404|  -11.112219|    0.060690|   -0.000454|
|         643|  -11.669343|  -11.118959|    0.060690|   -0.000454|
|         644|  -11.676267|  -11.125691|    0.060690|   -0.000454|
|         645|  -11.683181|  -11.132419|    0.060690|   -0.000454|
|         646|  -11.690079|  -11.139138|    0.060690|   -0.000454|
|         647|  -11.696965|  -11.145851|    0.060690|   -0.000454|
|         648|  -11.703838|  -11.152555|    0.060690|   -0.000454|
|         649|  -11.710698|  -11.159253|    0.060691|   -0.000454|
|         650|  -11.717545|  -11.165943|    0.060691|   -0.000454|
|         651|  -11.724379|  -11.172625|    0.060691|   -0.000454|
|         652|  -11.731199|  -11.179299|    0.060691|   -0.000454|
|         653|  -11.738010|  -11.185969|    0.060691|   -0.000454|
|         654|  -11.744805|  -11.192627|    0.060691|   -0.000454|
|         655|  -11.751587|  -11.199277|    0.060691|   -0.000454|
|         656|  -11.758358|  -11.205921|    0.060691|   -0.000454|
|         657|  -11.765116|  -11.212557|    0.060691|   -0.000454|
|         658|  -11.771862|  -11.219185|    0.060691|   -0.000454|
|         659|  -11.778596|  -11.225805|    0.060691|   -0.000454|
|         660|  -11.785315|  -11.232415|    0.060691|   -0.000454|
|         661|  -11.792025|  -11.239018|    0.060691|   -0.000454|
|         662|  -11.798722|  -11.245614|    0.060691|   -0.000454|
|         663|  -11.805408|  -11.252202|    0.060691|   -0.000454|
|         664|  -11.812082|  -11.258782|    0.060691|   -0.000454|
|         665|  -11.818744|  -11.265353|    0.060691|   -0.000454|
|         666|  -11.825393|  -11.271915|    0.060691|   -0.000454|
|         667|  -11.832032|  -11.278470|    0.060691|   -0.000454|
|         668|  -11.838657|  -11.285016|    0.060691|   -0.000454|
|         669|  -11.845272|  -11.291553|    0.060691|   -0.000454|
|         670|  -11.851875|  -11.298081|    0.060692|   -0.000454|
|         671|  -11.858466|  -11.304601|    0.060692|   -0.000454|
|         672|  -11.865046|  -11.311114|    0.060692|   -0.000454|
|         673|  -11.871615|  -11.317618|    0.060692|   -0.000454|
|         674|  -11.878173|  -11.324113|    0.060692|   -0.000454|
|         675|  -11.884717|  -11.330598|    0.060692|   -0.000454|
|         676|  -11.891250|  -11.337074|    0.060692|   -0.000454|
|         677|  -11.897776|  -11.343546|    0.060692|   -0.000454|
|         678|  -11.904287|  -11.350004|    0.060692|   -0.000454|
|         679|  -11.910788|  -11.356457|    0.060692|   -0.000454|
|         680|  -11.917274|  -11.362895|    0.060692|   -0.000454|
|         681|  -11.923751|  -11.369327|    0.060692|   -0.000454|
|         682|  -11.930222|  -11.375756|    0.060692|   -0.000454|
|         683|  -11.936676|  -11.382170|    0.060692|   -0.000454|
|         684|  -11.943122|  -11.388577|    0.060692|   -0.000454|
|         685|  -11.949553|  -11.394971|    0.060692|   -0.000454|
|         686|  -11.955977|  -11.401361|    0.060692|   -0.000454|
|         687|  -11.962390|  -11.407742|    0.060692|   -0.000454|
|         688|  -11.968794|  -11.414114|    0.060692|   -0.000454|
|         689|  -11.975184|  -11.420475|    0.060692|   -0.000454|
|         690|  -11.981565|  -11.426829|    0.060692|   -0.000454|
|         691|  -11.987935|  -11.433174|    0.060692|   -0.000454|
|         692|  -11.994295|  -11.439509|    0.060692|   -0.000454|
|         693|  -12.000644|  -11.445836|    0.060692|   -0.000454|
|         694|  -12.006989|  -11.452159|    0.060692|   -0.000454|
|         695|  -12.013317|  -11.458466|    0.060692|   -0.000454|
|         696|  -12.019641|  -11.464772|    0.060692|   -0.000454|
|         697|  -12.025951|  -11.471064|    0.060692|   -0.000454|
|         698|  -12.032251|  -11.477348|    0.060692|   -0.000454|
|         699|  -12.038545|  -11.483626|    0.060692|   -0.000454|
|         700|  -12.044824|  -11.489892|    0.060692|   -0.000454|
|         701|  -12.051096|  -11.496153|    0.060693|   -0.000454|
|         702|  -12.057361|  -11.502405|    0.060693|   -0.000454|
|         703|  -12.063615|  -11.508649|    0.060693|   -0.000454|
|         704|  -12.069861|  -11.514885|    0.060693|   -0.000454|
|         705|  -12.076096|  -11.521111|    0.060693|   -0.000454|
|         706|  -12.082326|  -11.527334|    0.060693|   -0.000454|
|         707|  -12.088542|  -11.533543|    0.060693|   -0.000454|
|         708|  -12.094755|  -11.539751|    0.060693|   -0.000454|
|         709|  -12.100952|  -11.545942|    0.060693|   -0.000454|
|         710|  -12.107144|  -11.552130|    0.060693|   -0.000454|
|         711|  -12.113326|  -11.558309|    0.060693|   -0.000454|
|         712|  -12.119499|  -11.564479|    0.060693|   -0.000454|
|         713|  -12.125664|  -11.570643|    0.060693|   -0.000454|
|         714|  -12.131824|  -11.576801|    0.060693|   -0.000454|
|         715|  -12.137975|  -11.582951|    0.060693|   -0.000454|
|         716|  -12.144114|  -11.589091|    0.060693|   -0.000454|
|         717|  -12.150249|  -11.595226|    0.060693|   -0.000454|
|         718|  -12.156372|  -11.601351|    0.060693|   -0.000454|
|         719|  -12.162486|  -11.607466|    0.060693|   -0.000454|
|         720|  -12.168595|  -11.613579|    0.060693|   -0.000454|
|         721|  -12.174699|  -11.619686|    0.060693|   -0.000454|
|         722|  -12.180792|  -11.625782|    0.060693|   -0.000454|
|         723|  -12.186876|  -11.631870|    0.060693|   -0.000454|
|         724|  -12.192958|  -11.637956|    0.060693|   -0.000454|
|         725|  -12.199034|  -11.644036|    0.060693|   -0.000454|
|         726|  -12.205097|  -11.650104|    0.060693|   -0.000454|
|         727|  -12.211155|  -11.656167|    0.060693|   -0.000454|
|         728|  -12.217204|  -11.662223|    0.060693|   -0.000454|
|         729|  -12.223249|  -11.668275|    0.060693|   -0.000454|
|         730|  -12.229291|  -11.674323|    0.060693|   -0.000454|
|         731|  -12.235319|  -11.680358|    0.060693|   -0.000454|
|         732|  -12.241346|  -11.686391|    0.060693|   -0.000454|
|         733|  -12.247360|  -11.692413|    0.060693|   -0.000454|
|         734|  -12.253375|  -11.698435|    0.060693|   -0.000454|
|         735|  -12.259379|  -11.704449|    0.060693|   -0.000454|
|         736|  -12.265381|  -11.710457|    0.060693|   -0.000454|
|         737|  -12.271368|  -11.716454|    0.060693|   -0.000454|
|         738|  -12.277359|  -11.722454|    0.060693|   -0.000454|
|         739|  -12.283342|  -11.728445|    0.060693|   -0.000454|
|         740|  -12.289316|  -11.734430|    0.060693|   -0.000454|
|         741|  -12.295284|  -11.740408|    0.060693|   -0.000454|
|         742|  -12.301253|  -11.746386|    0.060693|   -0.000454|
|         743|  -12.307212|  -11.752355|    0.060693|   -0.000454|
|         744|  -12.313167|  -11.758321|    0.060693|   -0.000454|
|         745|  -12.319114|  -11.764278|    0.060693|   -0.000454|
|         746|  -12.325060|  -11.770232|    0.060693|   -0.000454|
|         747|  -12.330999|  -11.776182|    0.060693|   -0.000454|
|         748|  -12.336936|  -11.782131|    0.060693|   -0.000454|
|         749|  -12.342858|  -11.788065|    0.060693|   -0.000454|
|         750|  -12.348786|  -11.794001|    0.060693|   -0.000454|
+-----------------------------------------------------------------------+
|        File Writing Summary       |              Filename             |
+-----------------------------------------------------------------------+
|SU2 restart                        |restart_flow.dat                   |
|Paraview                           |flow.vtu                           |
|Paraview surface                   |surface_flow.vtu                   |
|CSV file                           |surface_flow.csv                   |
+-----------------------------------------------------------------------+
+----------------------------------------------------------------+
|  Inner_Iter|    rms[Rho]|   rms[RhoE]|          CL|          CD|
+----------------------------------------------------------------+
|         751|  -12.354706|  -11.799933|    0.060693|   -0.000454|
|         752|  -12.360618|  -11.805856|    0.060693|   -0.000454|
|         753|  -12.366530|  -11.811779|    0.060693|   -0.000454|
|         754|  -12.372439|  -11.817699|    0.060693|   -0.000454|
|         755|  -12.378334|  -11.823607|    0.060693|   -0.000454|
|         756|  -12.384234|  -11.829519|    0.060694|   -0.000454|
|         757|  -12.390128|  -11.835425|    0.060694|   -0.000454|
|         758|  -12.396015|  -11.841322|    0.060694|   -0.000454|
|         759|  -12.401904|  -11.847223|    0.060694|   -0.000454|
|         760|  -12.407787|  -11.853118|    0.060694|   -0.000454|
|         761|  -12.413667|  -11.859011|    0.060694|   -0.000454|
|         762|  -12.419538|  -11.864893|    0.060694|   -0.000454|
|         763|  -12.425411|  -11.870779|    0.060694|   -0.000454|
|         764|  -12.431280|  -11.876659|    0.060694|   -0.000454|
|         765|  -12.437144|  -11.882536|    0.060694|   -0.000454|
|         766|  -12.443003|  -11.888409|    0.060694|   -0.000454|
|         767|  -12.448865|  -11.894280|    0.060694|   -0.000454|
|         768|  -12.454713|  -11.900141|    0.060694|   -0.000454|
|         769|  -12.460574|  -11.906016|    0.060694|   -0.000454|
|         770|  -12.466424|  -11.911879|    0.060694|   -0.000454|
|         771|  -12.472266|  -11.917732|    0.060694|   -0.000454|
|         772|  -12.478113|  -11.923593|    0.060694|   -0.000454|
|         773|  -12.483954|  -11.929446|    0.060694|   -0.000454|
|         774|  -12.489802|  -11.935304|    0.060694|   -0.000454|
|         775|  -12.495631|  -11.941146|    0.060694|   -0.000454|
|         776|  -12.501465|  -11.946993|    0.060694|   -0.000454|
|         777|  -12.507299|  -11.952839|    0.060694|   -0.000454|
|         778|  -12.513118|  -11.958670|    0.060694|   -0.000454|
|         779|  -12.518955|  -11.964519|    0.060694|   -0.000454|
|         780|  -12.524774|  -11.970351|    0.060694|   -0.000454|
|         781|  -12.530604|  -11.976194|    0.060694|   -0.000454|
|         782|  -12.536426|  -11.982027|    0.060694|   -0.000454|
|         783|  -12.542239|  -11.987853|    0.060694|   -0.000454|
|         784|  -12.548065|  -11.993693|    0.060694|   -0.000454|
|         785|  -12.553886|  -11.999526|    0.060694|   -0.000454|
|         786|  -12.559690|  -12.005344|    0.060694|   -0.000454|
|         787|  -12.565504|  -12.011170|    0.060694|   -0.000454|
|         788|  -12.571315|  -12.016991|    0.060694|   -0.000454|
|         789|  -12.577126|  -12.022817|    0.060694|   -0.000454|
|         790|  -12.582938|  -12.028641|    0.060694|   -0.000454|
|         791|  -12.588738|  -12.034453|    0.060694|   -0.000454|
|         792|  -12.594545|  -12.040271|    0.060694|   -0.000454|
|         793|  -12.600355|  -12.046093|    0.060694|   -0.000454|
|         794|  -12.606161|  -12.051913|    0.060694|   -0.000454|
|         795|  -12.611971|  -12.057735|    0.060694|   -0.000454|
|         796|  -12.617767|  -12.063544|    0.060694|   -0.000454|
|         797|  -12.623569|  -12.069357|    0.060694|   -0.000454|
|         798|  -12.629367|  -12.075168|    0.060694|   -0.000454|
|         799|  -12.635186|  -12.080995|    0.060694|   -0.000454|
|         800|  -12.640972|  -12.086797|    0.060694|   -0.000454|
|         801|  -12.646772|  -12.092609|    0.060694|   -0.000454|
|         802|  -12.652569|  -12.098418|    0.060694|   -0.000454|
|         803|  -12.658366|  -12.104226|    0.060694|   -0.000454|
|         804|  -12.664165|  -12.110034|    0.060694|   -0.000454|
|         805|  -12.669972|  -12.115855|    0.060694|   -0.000454|
|         806|  -12.675771|  -12.121668|    0.060694|   -0.000454|
|         807|  -12.681556|  -12.127463|    0.060694|   -0.000454|
|         808|  -12.687345|  -12.133263|    0.060694|   -0.000454|
|         809|  -12.693153|  -12.139083|    0.060694|   -0.000454|
|         810|  -12.698957|  -12.144897|    0.060694|   -0.000454|
|         811|  -12.704754|  -12.150710|    0.060694|   -0.000454|
|         812|  -12.710548|  -12.156517|    0.060694|   -0.000454|
|         813|  -12.716346|  -12.162323|    0.060694|   -0.000454|
|         814|  -12.722137|  -12.168127|    0.060694|   -0.000454|
|         815|  -12.727939|  -12.173938|    0.060694|   -0.000454|
|         816|  -12.733753|  -12.179762|    0.060694|   -0.000454|
|         817|  -12.739526|  -12.185545|    0.060694|   -0.000454|
|         818|  -12.745326|  -12.191360|    0.060694|   -0.000454|
|         819|  -12.751116|  -12.197159|    0.060694|   -0.000454|
|         820|  -12.756941|  -12.202997|    0.060694|   -0.000454|
|         821|  -12.762723|  -12.208793|    0.060694|   -0.000454|
|         822|  -12.768536|  -12.214619|    0.060694|   -0.000454|
|         823|  -12.774322|  -12.220410|    0.060694|   -0.000454|
|         824|  -12.780138|  -12.226241|    0.060694|   -0.000454|
|         825|  -12.785932|  -12.232039|    0.060694|   -0.000454|
|         826|  -12.791732|  -12.237849|    0.060694|   -0.000454|
|         827|  -12.797531|  -12.243667|    0.060694|   -0.000454|
|         828|  -12.803357|  -12.249500|    0.060694|   -0.000454|
|         829|  -12.809155|  -12.255308|    0.060694|   -0.000454|
|         830|  -12.814976|  -12.261142|    0.060694|   -0.000454|
|         831|  -12.820764|  -12.266934|    0.060694|   -0.000454|
|         832|  -12.826582|  -12.272770|    0.060694|   -0.000454|
|         833|  -12.832377|  -12.278570|    0.060694|   -0.000454|
|         834|  -12.838188|  -12.284393|    0.060694|   -0.000454|
|         835|  -12.844017|  -12.290232|    0.060694|   -0.000454|
|         836|  -12.849818|  -12.296045|    0.060694|   -0.000454|
|         837|  -12.855648|  -12.301881|    0.060694|   -0.000454|
|         838|  -12.861452|  -12.307695|    0.060694|   -0.000454|
|         839|  -12.867253|  -12.313508|    0.060694|   -0.000454|
|         840|  -12.873100|  -12.319363|    0.060694|   -0.000454|
|         841|  -12.878903|  -12.325173|    0.060694|   -0.000454|
|         842|  -12.884724|  -12.331010|    0.060694|   -0.000454|
|         843|  -12.890546|  -12.336841|    0.060694|   -0.000454|
|         844|  -12.896378|  -12.342682|    0.060694|   -0.000454|
|         845|  -12.902204|  -12.348516|    0.060694|   -0.000454|
|         846|  -12.908019|  -12.354338|    0.060694|   -0.000454|
|         847|  -12.913847|  -12.360174|    0.060694|   -0.000454|
|         848|  -12.919685|  -12.366017|    0.060694|   -0.000454|
|         849|  -12.925514|  -12.371862|    0.060694|   -0.000454|
|         850|  -12.931344|  -12.377695|    0.060694|   -0.000454|
|         851|  -12.937152|  -12.383512|    0.060694|   -0.000454|
|         852|  -12.943036|  -12.389410|    0.060694|   -0.000454|
|         853|  -12.948857|  -12.395235|    0.060694|   -0.000454|
|         854|  -12.954682|  -12.401078|    0.060694|   -0.000454|
|         855|  -12.960499|  -12.406896|    0.060694|   -0.000454|
|         856|  -12.966359|  -12.412765|    0.060694|   -0.000454|
|         857|  -12.972245|  -12.418657|    0.060694|   -0.000454|
|         858|  -12.978062|  -12.424484|    0.060694|   -0.000454|
|         859|  -12.983889|  -12.430319|    0.060694|   -0.000454|
|         860|  -12.989764|  -12.436202|    0.060694|   -0.000454|
|         861|  -12.995630|  -12.442061|    0.060694|   -0.000454|
|         862|  -13.001465|  -12.447915|    0.060694|   -0.000454|

----------------------------- Solver Exit -------------------------------
All convergence criteria satisfied.
+-----------------------------------------------------------------------+
|      Convergence Field     |     Value    |   Criterion  |  Converged |
+-----------------------------------------------------------------------+
|                    rms[Rho]|      -13.0015|         < -13|         Yes|
+-----------------------------------------------------------------------+
-------------------------------------------------------------------------
+-----------------------------------------------------------------------+
|        File Writing Summary       |              Filename             |
+-----------------------------------------------------------------------+
|SU2 restart                        |restart_flow.dat                   |
|Paraview                           |flow.vtu                           |
|Paraview surface                   |surface_flow.vtu                   |
|CSV file                           |surface_flow.csv                   |
+-----------------------------------------------------------------------+

------------------------- Solver Postprocessing -------------------------
Deleted CNumerics container.
Deleted CIntegration container.
Deleted CSolver container.
Deleted CIteration container.
Deleted CInterpolator container.
Deleted CInterface container.
Deleted CGeometry container.
Deleted CFreeFormDefBox class.
Deleted CSurfaceMovement class.
Deleted CVolumetricMovement class.
Deleted CConfig container.
Deleted nInst container.
Deleted COutput class.
-------------------------------------------------------------------------

------------------------- Exit Success (SU2_CFD) ------------------------

