
-------------------------------------------------------------------------
|    ___ _   _ ___                                                      |
|   / __| | | |_  )   Release 7.0.5 "Blackbird"                         |
|   \__ \ |_| |/ /                                                      |
|   |___/\___//___|   Suite (Computational Fluid Dynamics Code)         |
|                                                                       |
-------------------------------------------------------------------------
| SU2 Project Website: https://su2code.github.io                        |
|                                                                       |
| The SU2 Project is maintained by the SU2 Foundation                   |
| (http://su2foundation.org)                                            |
-------------------------------------------------------------------------
| Copyright 2012-2020, SU2 Contributors                                 |
|                                                                       |
| SU2 is free software; you can redistribute it and/or                  |
| modify it under the terms of the GNU Lesser General Public            |
| License as published by the Free Software Foundation; either          |
| version 2.1 of the License, or (at your option) any later version.    |
|                                                                       |
| SU2 is distributed in the hope that it will be useful,                |
| but WITHOUT ANY WARRANTY; without even the implied warranty of        |
| MERCHANTABILITY or FITNESS FOR A PARTICULAR PURPOSE. See the GNU      |
| Lesser General Public License for more details.                       |
|                                                                       |
| You should have received a copy of the GNU Lesser General Public      |
| License along with SU2. If not, see <http://www.gnu.org/licenses/>.   |
-------------------------------------------------------------------------

Parsing config file for zone 0

----------------- Physical Case Definition ( Zone 0 ) -------------------
Compressible Euler equations.
Mach number: 0.1.
Angle of attack (AoA): -0.5 deg, and angle of sideslip (AoS): 0 deg.
No restart solution, use the values at infinity (freestream).
Non-Dimensional simulation (P=1.0, Rho=1.0, T=1.0 at the farfield).
The reference area is 1 m^2.
The semi-span will be computed using the max y(3D) value.
The reference length is 1 m.
Reference origin for moment evaluation is (0.25, 0, 0).
Surface(s) where the force coefficients are evaluated: airfoil.

Surface(s) plotted in the output file: airfoil.
Surface(s) affected by the design variables: airfoil.
Input mesh file name: mesh_NACA0012_inv.su2

--------------- Space Numerical Integration ( Zone 0 ) ------------------
Jameson-Schmidt-Turkel scheme (2nd order in space) for the flow inviscid terms.
JST viscous coefficients (2nd & 4th): 0.5, 0.02.
The method includes a grid stretching correction (p = 0.3).
Gradient for upwind reconstruction: Green-Gauss.
Gradient for viscous and source terms: Green-Gauss.

--------------- Time Numerical Integration  ( Zone 0 ) ------------------
Local time stepping (steady state simulation).
Euler implicit method for the flow equations.
FGMRES is used for solving the linear system.
Using a LU-SGS preconditioning.
Convergence criteria of the linear solver: 0.0001.
Max number of linear iterations: 2.
V Multigrid Cycle, with 2 multigrid levels.
Damping factor for the residual restriction: 1.
Damping factor for the correction prolongation: 1.
No CFL adaptation.
+-------------------------------------------+
|  MG Level| Presmooth|PostSmooth|CorrectSmo|
+-------------------------------------------+
|         0|         1|         0|         0|
|         1|         2|         0|         0|
|         2|         3|         0|         0|
+-------------------------------------------+
Courant-Friedrichs-Lewy number:       10

------------------ Convergence Criteria  ( Zone 0 ) ---------------------
Maximum number of solver subiterations: 1000.
Begin convergence monitoring at iteration 10.
Residual minimum value: 1e-13.
Cauchy series min. value: 1e-06.
Number of Cauchy elements: 100.
Begin windowed time average at iteration 0.

-------------------- Output Information ( Zone 0 ) ----------------------
Writing solution files every 250 iterations.
Writing the convergence history file every 1 inner iterations.
Writing the screen convergence history every 1 inner iterations.
The tabular file format is CSV (.csv).
Convergence history file name: history_direct.
Forces breakdown file name: forces_breakdown.dat.
Surface file name: surface_flow.
Volume file name: flow.
Restart file name: restart_flow.dat.

------------- Config File Boundary Information ( Zone 0 ) ---------------
+-----------------------------------------------------------------------+
|                        Marker Type|                        Marker Name|
+-----------------------------------------------------------------------+
|                         Euler wall|                            airfoil|
+-----------------------------------------------------------------------+
|                          Far-field|                           farfield|
+-----------------------------------------------------------------------+

-------------------- Output Preprocessing ( Zone 0 ) --------------------
Screen output fields: INNER_ITER, RMS_DENSITY, RMS_ENERGY, LIFT, DRAG
History output group(s): ITER, RMS_RES, AERO_COEFF
Convergence field(s): RMS_DENSITY
Warning: No (valid) fields chosen for time convergence monitoring. Time convergence monitoring inactive.
Volume output fields: COORDINATES, SOLUTION, PRIMITIVE

------------------- Geometry Preprocessing ( Zone 0 ) -------------------
Two dimensional problem.
5233 grid points.
10216 volume elements.
2 surface markers.
200 boundary elements in index 0 (Marker = airfoil).
50 boundary elements in index 1 (Marker = farfield).
10216 triangles.
Setting point connectivity.
Renumbering points (Reverse Cuthill McKee Ordering).
Recomputing point connectivity.
Setting element connectivity.
Checking the numerical grid orientation.
Identifying edges and vertices.
Computing centers of gravity.
Setting the control volume structure.
Area of the computational grid: 1253.25.
Searching for the closest normal neighbors to the surfaces.
Storing a mapping from global to local point index.
Compute the surface curvature.
Max K: 7835.1. Mean K: 34.8252. Standard deviation K: 494.448.
Checking for periodicity.
Computing mesh quality statistics for the dual control volumes.
+--------------------------------------------------------------+
|           Mesh Quality Metric|        Minimum|        Maximum|
+--------------------------------------------------------------+
|    Orthogonality Angle (deg.)|        62.6714|        89.7089|
|     CV Face Area Aspect Ratio|        1.00001|        7.18337|
|           CV Sub-Volume Ratio|        1.00285|        6.47826|
+--------------------------------------------------------------+
Setting the multigrid structure.
+-------------------------------------------+
|  MG Level|       CVs|Aggl. Rate|       CFL|
+-------------------------------------------+
|         0|      5233|    1/1.00|        10|
|         1|      1533|    1/3.41|   8.11871|
|         2|       443|    1/3.46|    6.5465|
+-------------------------------------------+
Finding max control volume width.
Wetted area = 2.03916 m.
Area projection in the x-plane = 0.119981 m, y-plane = 0.999845 m.
Max. coordinate in the x-direction = 1 m, y-direction = 0.0600055 m.
Min. coordinate in the x-direction = 0 m, y-direction = -0.0600055 m.
Checking if Euler & Symmetry markers are straight/plane:
Boundary marker airfoil is NOT a single straight.
Computing wall distances.

-------------------- Solver Preprocessing ( Zone 0 ) --------------------
Inviscid flow: Computing density based on free-stream
temperature and pressure using the ideal gas law.
Force coefficients computed using free-stream values.

-- Models:
+------------------------------------------------------------------------------+
|          Viscosity Model|        Conductivity Model|              Fluid Model|
+------------------------------------------------------------------------------+
|                        -|                         -|             STANDARD_AIR|
+------------------------------------------------------------------------------+
-- Fluid properties:
+------------------------------------------------------------------------------+
|                  Name|    Dim. value|    Ref. value|      Unit|Non-dim. value|
+------------------------------------------------------------------------------+
|          Gas Constant|       287.058|       287.058|  N.m/kg.K|             1|
|      Spec. Heat Ratio|             -|             -|         -|           1.4|
+------------------------------------------------------------------------------+
-- Initial and free-stream conditions:
+------------------------------------------------------------------------------+
|                  Name|    Dim. value|    Ref. value|      Unit|Non-dim. value|
+------------------------------------------------------------------------------+
|       Static Pressure|        101325|        101325|        Pa|             1|
|               Density|       1.22498|       1.22498|    kg/m^3|             1|
|           Temperature|        288.15|        288.15|         K|             1|
|          Total Energy|        207368|       82715.8|   m^2/s^2|         2.507|
|            Velocity-X|       34.0284|       287.603|       m/s|      0.118317|
|            Velocity-Y|     -0.296961|       287.603|       m/s|   -0.00103254|
|    Velocity Magnitude|       34.0297|       287.603|       m/s|      0.118322|
+------------------------------------------------------------------------------+
|           Mach Number|             -|             -|         -|           0.1|
+------------------------------------------------------------------------------+
Initialize Jacobian structure (Euler). MG level: 0.
Initialize Jacobian structure (Euler). MG level: 1.
Initialize Jacobian structure (Euler). MG level: 2.

------------------- Numerics Preprocessing ( Zone 0 ) -------------------

----------------- Integration Preprocessing ( Zone 0 ) ------------------

------------------- Iteration Preprocessing ( Zone 0 ) ------------------
Euler/Navier-Stokes/RANS fluid iteration.

------------------------------ Begin Solver -----------------------------

Simulation Run using the Single-zone Driver
+----------------------------------------------------------------+
|  Inner_Iter|    rms[Rho]|   rms[RhoE]|          CL|          CD|
+----------------------------------------------------------------+
|           0|   -4.493924|   -3.948988|   -0.539250|    1.370057|
|           1|   -4.619697|   -4.068789|    0.078758|   -0.138600|
|           2|   -4.731167|   -4.182507|    0.159067|   -0.249514|
|           3|   -4.706656|   -4.152003|    0.015618|    0.062217|
|           4|   -4.652631|   -4.105624|   -0.150400|    0.184074|
|           5|   -4.794536|   -4.242902|   -0.077810|    0.029818|
|           6|   -4.755072|   -4.207636|    0.045241|   -0.088036|
|           7|   -4.968537|   -4.417662|    0.015428|   -0.014803|
|           8|   -4.949472|   -4.402029|   -0.056341|    0.080467|
|           9|   -5.163569|   -4.613804|   -0.056792|    0.030273|
|          10|   -5.208355|   -4.659740|   -0.022553|   -0.050034|
|          11|   -5.311687|   -4.762900|   -0.012467|   -0.016913|
|          12|   -5.440300|   -4.892461|   -0.028812|    0.041644|
|          13|   -5.460357|   -4.910519|   -0.044962|    0.016662|
|          14|   -5.619193|   -5.072057|   -0.042611|   -0.027625|
|          15|   -5.643645|   -5.092349|   -0.031702|   -0.010022|
|          16|   -5.732294|   -5.187259|   -0.029932|    0.022909|
|          17|   -5.861143|   -5.308993|   -0.038687|    0.010299|
|          18|   -5.871820|   -5.326393|   -0.046170|   -0.014219|
|          19|   -6.037647|   -5.486362|   -0.044149|   -0.006235|
|          20|   -5.984322|   -5.439708|   -0.037631|    0.010857|
|          21|   -6.188328|   -5.639175|   -0.037837|    0.005576|
|          22|   -6.086050|   -5.541523|   -0.045322|   -0.006213|
|          23|   -6.281880|   -5.736315|   -0.048896|   -0.003245|
|          24|   -6.178666|   -5.633959|   -0.044256|    0.004534|
|          25|   -6.339158|   -5.796019|   -0.040675|    0.002742|
|          26|   -6.296735|   -5.753649|   -0.044363|   -0.002628|
|          27|   -6.367909|   -5.828316|   -0.048984|   -0.001813|
|          28|   -6.433187|   -5.892338|   -0.047928|    0.001888|
|          29|   -6.435504|   -5.894399|   -0.044466|    0.001598|
|          30|   -6.500152|   -5.963484|   -0.044616|   -0.001101|
|          31|   -6.498962|   -5.963127|   -0.047549|   -0.001290|
|          32|   -6.540029|   -6.006165|   -0.048924|    0.000600|
|          33|   -6.577304|   -6.043121|   -0.047590|    0.001151|
|          34|   -6.571386|   -6.036812|   -0.046258|   -0.000131|
|          35|   -6.589674|   -6.057700|   -0.046896|   -0.000899|
|          36|   -6.594997|   -6.063441|   -0.048353|   -0.000238|
|          37|   -6.608869|   -6.078897|   -0.048864|    0.000548|
|          38|   -6.621693|   -6.092507|   -0.048273|    0.000330|
|          39|   -6.626803|   -6.097977|   -0.047827|   -0.000357|
|          40|   -6.635240|   -6.107032|   -0.048230|   -0.000486|
|          41|   -6.642640|   -6.115396|   -0.048964|   -0.000075|
|          42|   -6.656543|   -6.131077|   -0.049269|    0.000157|
|          43|   -6.670020|   -6.145659|   -0.049109|   -0.000077|
|          44|   -6.680114|   -6.156067|   -0.049001|   -0.000368|
|          45|   -6.692593|   -6.169280|   -0.049239|   -0.000348|
|          46|   -6.704280|   -6.181938|   -0.049615|   -0.000162|
|          47|   -6.719387|   -6.198248|   -0.049810|   -0.000133|
|          48|   -6.735281|   -6.214705|   -0.049807|   -0.000284|
|          49|   -6.746898|   -6.226122|   -0.049799|   -0.000389|
|          50|   -6.758139|   -6.237658|   -0.049917|   -0.000343|
|          51|   -6.769996|   -6.250167|   -0.050099|   -0.000265|
|          52|   -6.781842|   -6.262498|   -0.050218|   -0.000284|
|          53|   -6.793330|   -6.274115|   -0.050248|   -0.000364|
|          54|   -6.803042|   -6.283734|   -0.050255|   -0.000393|
|          55|   -6.812087|   -6.292979|   -0.050303|   -0.000351|
|          56|   -6.821930|   -6.303315|   -0.050388|   -0.000314|
|          57|   -6.832058|   -6.313917|   -0.050466|   -0.000332|
|          58|   -6.842073|   -6.324281|   -0.050511|   -0.000368|
|          59|   -6.852200|   -6.334722|   -0.050537|   -0.000369|
|          60|   -6.863162|   -6.346067|   -0.050574|   -0.000340|
|          61|   -6.875339|   -6.358657|   -0.050637|   -0.000323|
|          62|   -6.888317|   -6.372000|   -0.050717|   -0.000334|
|          63|   -6.901777|   -6.385740|   -0.050792|   -0.000348|
|          64|   -6.915849|   -6.400004|   -0.050857|   -0.000344|
|          65|   -6.930778|   -6.415038|   -0.050924|   -0.000330|
|          66|   -6.946494|   -6.430777|   -0.051008|   -0.000327|
|          67|   -6.962520|   -6.446740|   -0.051110|   -0.000335|
|          68|   -6.978547|   -6.462606|   -0.051217|   -0.000343|
|          69|   -6.994599|   -6.478395|   -0.051319|   -0.000342|
|          70|   -7.010628|   -6.494076|   -0.051419|   -0.000340|
|          71|   -7.026397|   -6.509460|   -0.051524|   -0.000345|
|          72|   -7.041635|   -6.524294|   -0.051640|   -0.000353|
|          73|   -7.056305|   -6.538517|   -0.051758|   -0.000360|
|          74|   -7.070598|   -6.552308|   -0.051870|   -0.000362|
|          75|   -7.084616|   -6.565803|   -0.051977|   -0.000366|
|          76|   -7.098311|   -6.578990|   -0.052081|   -0.000372|
|          77|   -7.111695|   -6.591889|   -0.052187|   -0.000379|
|          78|   -7.124951|   -6.604658|   -0.052291|   -0.000384|
|          79|   -7.138311|   -6.617515|   -0.052389|   -0.000387|
|          80|   -7.151869|   -6.630575|   -0.052479|   -0.000390|
|          81|   -7.165596|   -6.643835|   -0.052565|   -0.000394|
|          82|   -7.179475|   -6.657288|   -0.052648|   -0.000398|
|          83|   -7.193545|   -6.670969|   -0.052729|   -0.000400|
|          84|   -7.207806|   -6.684887|   -0.052806|   -0.000400|
|          85|   -7.222183|   -6.698980|   -0.052878|   -0.000401|
|          86|   -7.236586|   -6.713164|   -0.052948|   -0.000402|
|          87|   -7.250976|   -6.727398|   -0.053017|   -0.000402|
|          88|   -7.265340|   -6.741656|   -0.053086|   -0.000402|
|          89|   -7.279648|   -6.755899|   -0.053154|   -0.000401|
|          90|   -7.293888|   -6.770100|   -0.053221|   -0.000400|
|          91|   -7.308113|   -6.784299|   -0.053289|   -0.000399|
|          92|   -7.322436|   -6.798596|   -0.053359|   -0.000398|
|          93|   -7.336965|   -6.813099|   -0.053430|   -0.000397|
|          94|   -7.351783|   -6.827889|   -0.053503|   -0.000396|
|          95|   -7.366962|   -6.843048|   -0.053578|   -0.000395|
|          96|   -7.382570|   -6.858664|   -0.053655|   -0.000395|
|          97|   -7.398644|   -6.874805|   -0.053733|   -0.000395|
|          98|   -7.415163|   -6.891482|   -0.053813|   -0.000395|
|          99|   -7.432039|   -6.908634|   -0.053895|   -0.000395|
|         100|   -7.449127|   -6.926140|   -0.053978|   -0.000396|
|         101|   -7.466252|   -6.943844|   -0.054061|   -0.000396|
|         102|   -7.483222|   -6.961566|   -0.054145|   -0.000398|
|         103|   -7.499848|   -6.979113|   -0.054228|   -0.000399|
|         104|   -7.515963|   -6.996298|   -0.054311|   -0.000400|
|         105|   -7.531444|   -7.012959|   -0.054393|   -0.000402|
|         106|   -7.546236|   -7.028996|   -0.054474|   -0.000404|
|         107|   -7.560369|   -7.044393|   -0.054553|   -0.000406|
|         108|   -7.573950|   -7.059214|   -0.054630|   -0.000408|
|         109|   -7.587145|   -7.073598|   -0.054705|   -0.000410|
|         110|   -7.600151|   -7.087732|   -0.054778|   -0.000411|
|         111|   -7.613173|   -7.101831|   -0.054848|   -0.000413|
|         112|   -7.626393|   -7.116103|   -0.054916|   -0.000415|
|         113|   -7.639945|   -7.130714|   -0.054982|   -0.000416|
|         114|   -7.653895|   -7.145769|   -0.055047|   -0.000418|
|         115|   -7.668245|   -7.161304|   -0.055109|   -0.000419|
|         116|   -7.682932|   -7.177286|   -0.055170|   -0.000420|
|         117|   -7.697842|   -7.193613|   -0.055230|   -0.000421|
|         118|   -7.712816|   -7.210119|   -0.055288|   -0.000422|
|         119|   -7.727679|   -7.226601|   -0.055346|   -0.000423|
|         120|   -7.742271|   -7.242855|   -0.055403|   -0.000423|
|         121|   -7.756476|   -7.258716|   -0.055461|   -0.000424|
|         122|   -7.770253|   -7.274094|   -0.055517|   -0.000424|
|         123|   -7.783649|   -7.289006|   -0.055574|   -0.000424|
|         124|   -7.796794|   -7.303575|   -0.055632|   -0.000424|
|         125|   -7.809880|   -7.318022|   -0.055689|   -0.000424|
|         126|   -7.823128|   -7.332616|   -0.055747|   -0.000424|
|         127|   -7.836743|   -7.347633|   -0.055806|   -0.000424|
|         128|   -7.850879|   -7.363304|   -0.055865|   -0.000424|
|         129|   -7.865607|   -7.379768|   -0.055924|   -0.000424|
|         130|   -7.880895|   -7.397043|   -0.055984|   -0.000424|
|         131|   -7.896603|   -7.415011|   -0.056044|   -0.000424|
|         132|   -7.912496|   -7.433415|   -0.056104|   -0.000424|
|         133|   -7.928265|   -7.451879|   -0.056164|   -0.000425|
|         134|   -7.943565|   -7.469940|   -0.056224|   -0.000425|
|         135|   -7.958065|   -7.487106|   -0.056283|   -0.000425|
|         136|   -7.971499|   -7.502933|   -0.056342|   -0.000426|
|         137|   -7.983720|   -7.517114|   -0.056400|   -0.000426|
|         138|   -7.994737|   -7.529557|   -0.056457|   -0.000427|
|         139|   -8.004712|   -7.540411|   -0.056513|   -0.000427|
|         140|   -8.013942|   -7.550049|   -0.056567|   -0.000428|
|         141|   -8.022806|   -7.558997|   -0.056621|   -0.000429|
|         142|   -8.031698|   -7.567838|   -0.056673|   -0.000430|
|         143|   -8.040981|   -7.577127|   -0.056724|   -0.000430|
|         144|   -8.050934|   -7.587321|   -0.056773|   -0.000431|
|         145|   -8.061731|   -7.598735|   -0.056821|   -0.000432|
|         146|   -8.073427|   -7.611523|   -0.056868|   -0.000433|
|         147|   -8.085951|   -7.625665|   -0.056913|   -0.000434|
|         148|   -8.099121|   -7.640973|   -0.056958|   -0.000434|
|         149|   -8.112664|   -7.657105|   -0.057001|   -0.000435|
|         150|   -8.126254|   -7.673602|   -0.057043|   -0.000436|
|         151|   -8.139557|   -7.689949|   -0.057084|   -0.000437|
|         152|   -8.152295|   -7.705661|   -0.057124|   -0.000437|
|         153|   -8.164292|   -7.720374|   -0.057164|   -0.000438|
|         154|   -8.175512|   -7.733926|   -0.057202|   -0.000439|
|         155|   -8.186053|   -7.746384|   -0.057240|   -0.000439|
|         156|   -8.196125|   -7.758017|   -0.057277|   -0.000440|
|         157|   -8.205997|   -7.769235|   -0.057314|   -0.000440|
|         158|   -8.215947|   -7.780497|   -0.057350|   -0.000441|
|         159|   -8.226211|   -7.792230|   -0.057386|   -0.000441|
|         160|   -8.236946|   -7.804762|   -0.057421|   -0.000441|
|         161|   -8.248206|   -7.818271|   -0.057456|   -0.000442|
|         162|   -8.259933|   -7.832763|   -0.057491|   -0.000442|
|         163|   -8.271964|   -7.848066|   -0.057525|   -0.000442|
|         164|   -8.284052|   -7.863836|   -0.057559|   -0.000442|
|         165|   -8.295895|   -7.879597|   -0.057593|   -0.000443|
|         166|   -8.307184|   -7.894792|   -0.057626|   -0.000443|
|         167|   -8.317652|   -7.908872|   -0.057659|   -0.000443|
|         168|   -8.327126|   -7.921399|   -0.057691|   -0.000443|
|         169|   -8.335554|   -7.932142|   -0.057723|   -0.000444|
|         170|   -8.343017|   -7.941123|   -0.057754|   -0.000444|
|         171|   -8.349714|   -7.948619|   -0.057784|   -0.000444|
|         172|   -8.355917|   -7.955090|   -0.057814|   -0.000444|
|         173|   -8.361931|   -7.961094|   -0.057843|   -0.000444|
|         174|   -8.368048|   -7.967189|   -0.057871|   -0.000445|
|         175|   -8.374514|   -7.973864|   -0.057899|   -0.000445|
|         176|   -8.381500|   -7.981488|   -0.057925|   -0.000445|
|         177|   -8.389095|   -7.990281|   -0.057952|   -0.000446|
|         178|   -8.397299|   -8.000307|   -0.057977|   -0.000446|
|         179|   -8.406028|   -8.011471|   -0.058002|   -0.000446|
|         180|   -8.415130|   -8.023536|   -0.058026|   -0.000446|
|         181|   -8.424407|   -8.036159|   -0.058050|   -0.000447|
|         182|   -8.433650|   -8.048934|   -0.058073|   -0.000447|
|         183|   -8.442670|   -8.061459|   -0.058095|   -0.000447|
|         184|   -8.451328|   -8.073406|   -0.058117|   -0.000448|
|         185|   -8.459556|   -8.084577|   -0.058138|   -0.000448|
|         186|   -8.467360|   -8.094925|   -0.058159|   -0.000448|
|         187|   -8.474808|   -8.104555|   -0.058180|   -0.000449|
|         188|   -8.482009|   -8.113675|   -0.058200|   -0.000449|
|         189|   -8.489083|   -8.122550|   -0.058219|   -0.000449|
|         190|   -8.496141|   -8.131435|   -0.058239|   -0.000449|
|         191|   -8.503262|   -8.140535|   -0.058258|   -0.000450|
|         192|   -8.510482|   -8.149967|   -0.058277|   -0.000450|
|         193|   -8.517795|   -8.159750|   -0.058296|   -0.000450|
|         194|   -8.525149|   -8.169799|   -0.058314|   -0.000450|
|         195|   -8.532464|   -8.179945|   -0.058333|   -0.000450|
|         196|   -8.539641|   -8.189955|   -0.058351|   -0.000451|
|         197|   -8.546584|   -8.199569|   -0.058369|   -0.000451|
|         198|   -8.553214|   -8.208548|   -0.058386|   -0.000451|
|         199|   -8.559482|   -8.216713|   -0.058404|   -0.000451|
|         200|   -8.565379|   -8.223978|   -0.058421|   -0.000451|
|         201|   -8.570939|   -8.230370|   -0.058438|   -0.000451|
|         202|   -8.576230|   -8.236018|   -0.058455|   -0.000451|
|         203|   -8.581345|   -8.241134|   -0.058472|   -0.000451|
|         204|   -8.586390|   -8.245970|   -0.058488|   -0.000451|
|         205|   -8.591465|   -8.250790|   -0.058504|   -0.000451|
|         206|   -8.596661|   -8.255829|   -0.058519|   -0.000452|
|         207|   -8.602043|   -8.261275|   -0.058535|   -0.000452|
|         208|   -8.607650|   -8.267250|   -0.058550|   -0.000452|
|         209|   -8.613490|   -8.273810|   -0.058565|   -0.000452|
|         210|   -8.619544|   -8.280937|   -0.058580|   -0.000452|
|         211|   -8.625766|   -8.288556|   -0.058594|   -0.000452|
|         212|   -8.632098|   -8.296543|   -0.058608|   -0.000452|
|         213|   -8.638471|   -8.304745|   -0.058622|   -0.000452|
|         214|   -8.644818|   -8.313005|   -0.058635|   -0.000452|
|         215|   -8.651085|   -8.321184|   -0.058649|   -0.000452|
|         216|   -8.657234|   -8.329180|   -0.058662|   -0.000452|
|         217|   -8.663248|   -8.336939|   -0.058675|   -0.000452|
|         218|   -8.669130|   -8.344459|   -0.058688|   -0.000452|
|         219|   -8.674900|   -8.351780|   -0.058700|   -0.000452|
|         220|   -8.680585|   -8.358969|   -0.058713|   -0.000452|
|         221|   -8.686218|   -8.366102|   -0.058725|   -0.000453|
|         222|   -8.691825|   -8.373247|   -0.058737|   -0.000453|
|         223|   -8.697422|   -8.380444|   -0.058749|   -0.000453|
|         224|   -8.703016|   -8.387703|   -0.058761|   -0.000453|
|         225|   -8.708597|   -8.394996|   -0.058772|   -0.000453|
|         226|   -8.714148|   -8.402261|   -0.058784|   -0.000453|
|         227|   -8.719641|   -8.409412|   -0.058796|   -0.000453|
|         228|   -8.725046|   -8.416350|   -0.058807|   -0.000453|
|         229|   -8.730334|   -8.422982|   -0.058818|   -0.000453|
|         230|   -8.735483|   -8.429227|   -0.058830|   -0.000453|
|         231|   -8.740477|   -8.435041|   -0.058841|   -0.000453|
|         232|   -8.745317|   -8.440412|   -0.058852|   -0.000453|
|         233|   -8.750010|   -8.445374|   -0.058862|   -0.000453|
|         234|   -8.754579|   -8.449995|   -0.058873|   -0.000453|
|         235|   -8.759052|   -8.454372|   -0.058884|   -0.000453|
|         236|   -8.763462|   -8.458616|   -0.058894|   -0.000453|
|         237|   -8.767846|   -8.462844|   -0.058904|   -0.000453|
|         238|   -8.772236|   -8.467162|   -0.058915|   -0.000453|
|         239|   -8.776658|   -8.471659|   -0.058924|   -0.000453|
|         240|   -8.781133|   -8.476399|   -0.058934|   -0.000453|
|         241|   -8.785671|   -8.481417|   -0.058944|   -0.000453|
|         242|   -8.790276|   -8.486719|   -0.058954|   -0.000453|
|         243|   -8.794941|   -8.492287|   -0.058963|   -0.000453|
|         244|   -8.799654|   -8.498081|   -0.058972|   -0.000453|
|         245|   -8.804401|   -8.504050|   -0.058981|   -0.000453|
|         246|   -8.809162|   -8.510132|   -0.058990|   -0.000453|
|         247|   -8.813922|   -8.516271|   -0.058999|   -0.000453|
|         248|   -8.818664|   -8.522415|   -0.059008|   -0.000452|
|         249|   -8.823377|   -8.528527|   -0.059016|   -0.000452|
|         250|   -8.828055|   -8.534583|   -0.059025|   -0.000452|
+-----------------------------------------------------------------------+
|        File Writing Summary       |              Filename             |
+-----------------------------------------------------------------------+
|SU2 restart                        |restart_flow.dat                   |
|Paraview                           |flow.vtu                           |
|Paraview surface                   |surface_flow.vtu                   |
|CSV file                           |surface_flow.csv                   |
+-----------------------------------------------------------------------+
+----------------------------------------------------------------+
|  Inner_Iter|    rms[Rho]|   rms[RhoE]|          CL|          CD|
+----------------------------------------------------------------+
|         251|   -8.832694|   -8.540573|   -0.059033|   -0.000452|
|         252|   -8.837294|   -8.546500|   -0.059041|   -0.000452|
|         253|   -8.841858|   -8.552374|   -0.059049|   -0.000452|
|         254|   -8.846389|   -8.558209|   -0.059057|   -0.000452|
|         255|   -8.850890|   -8.564018|   -0.059065|   -0.000452|
|         256|   -8.855362|   -8.569808|   -0.059073|   -0.000452|
|         257|   -8.859806|   -8.575580|   -0.059080|   -0.000452|
|         258|   -8.864221|   -8.581326|   -0.059088|   -0.000452|
|         259|   -8.868601|   -8.587033|   -0.059096|   -0.000452|
|         260|   -8.872944|   -8.592680|   -0.059103|   -0.000452|
|         261|   -8.877244|   -8.598245|   -0.059111|   -0.000452|
|         262|   -8.881498|   -8.603710|   -0.059118|   -0.000452|
|         263|   -8.885703|   -8.609058|   -0.059125|   -0.000452|
|         264|   -8.889860|   -8.614283|   -0.059132|   -0.000452|
|         265|   -8.893971|   -8.619387|   -0.059139|   -0.000452|
|         266|   -8.898042|   -8.624384|   -0.059146|   -0.000452|
|         267|   -8.902080|   -8.629295|   -0.059153|   -0.000452|
|         268|   -8.906095|   -8.634151|   -0.059160|   -0.000452|
|         269|   -8.910099|   -8.638988|   -0.059167|   -0.000452|
|         270|   -8.914102|   -8.643843|   -0.059173|   -0.000452|
|         271|   -8.918117|   -8.648755|   -0.059180|   -0.000452|
|         272|   -8.922154|   -8.653755|   -0.059186|   -0.000452|
|         273|   -8.926221|   -8.658870|   -0.059192|   -0.000452|
|         274|   -8.930324|   -8.664118|   -0.059199|   -0.000452|
|         275|   -8.934467|   -8.669508|   -0.059205|   -0.000452|
|         276|   -8.938652|   -8.675041|   -0.059211|   -0.000451|
|         277|   -8.942879|   -8.680711|   -0.059217|   -0.000451|
|         278|   -8.947145|   -8.686504|   -0.059223|   -0.000451|
|         279|   -8.951447|   -8.692404|   -0.059229|   -0.000451|
|         280|   -8.955780|   -8.698389|   -0.059234|   -0.000451|
|         281|   -8.960139|   -8.704440|   -0.059240|   -0.000451|
|         282|   -8.964521|   -8.710538|   -0.059245|   -0.000451|
|         283|   -8.968920|   -8.716666|   -0.059251|   -0.000451|
|         284|   -8.973335|   -8.722809|   -0.059256|   -0.000451|
|         285|   -8.977761|   -8.728957|   -0.059262|   -0.000451|
|         286|   -8.982196|   -8.735102|   -0.059267|   -0.000451|
|         287|   -8.986639|   -8.741237|   -0.059272|   -0.000451|
|         288|   -8.991089|   -8.747360|   -0.059277|   -0.000451|
|         289|   -8.995544|   -8.753465|   -0.059282|   -0.000451|
|         290|   -9.000003|   -8.759550|   -0.059287|   -0.000451|
|         291|   -9.004466|   -8.765613|   -0.059292|   -0.000451|
|         292|   -9.008932|   -8.771649|   -0.059297|   -0.000451|
|         293|   -9.013401|   -8.777657|   -0.059302|   -0.000451|
|         294|   -9.017872|   -8.783634|   -0.059306|   -0.000451|
|         295|   -9.022346|   -8.789579|   -0.059311|   -0.000451|
|         296|   -9.026823|   -8.795491|   -0.059316|   -0.000451|
|         297|   -9.031305|   -8.801375|   -0.059320|   -0.000451|
|         298|   -9.035794|   -8.807234|   -0.059325|   -0.000450|
|         299|   -9.040292|   -8.813076|   -0.059329|   -0.000450|
|         300|   -9.044802|   -8.818911|   -0.059333|   -0.000450|
|         301|   -9.049327|   -8.824749|   -0.059338|   -0.000450|
|         302|   -9.053872|   -8.830605|   -0.059342|   -0.000450|
|         303|   -9.058440|   -8.836490|   -0.059346|   -0.000450|
|         304|   -9.063036|   -8.842418|   -0.059350|   -0.000450|
|         305|   -9.067662|   -8.848400|   -0.059354|   -0.000450|
|         306|   -9.072322|   -8.854446|   -0.059358|   -0.000450|
|         307|   -9.077018|   -8.860563|   -0.059362|   -0.000450|
|         308|   -9.081753|   -8.866756|   -0.059366|   -0.000450|
|         309|   -9.086527|   -8.873027|   -0.059370|   -0.000450|
|         310|   -9.091341|   -8.879374|   -0.059374|   -0.000450|
|         311|   -9.096195|   -8.885794|   -0.059377|   -0.000450|
|         312|   -9.101088|   -8.892281|   -0.059381|   -0.000450|
|         313|   -9.106020|   -8.898830|   -0.059385|   -0.000450|
|         314|   -9.110988|   -8.905433|   -0.059388|   -0.000450|
|         315|   -9.115992|   -8.912080|   -0.059392|   -0.000450|
|         316|   -9.121030|   -8.918766|   -0.059395|   -0.000450|
|         317|   -9.126099|   -8.925482|   -0.059398|   -0.000450|
|         318|   -9.131199|   -8.932220|   -0.059402|   -0.000450|
|         319|   -9.136327|   -8.938975|   -0.059405|   -0.000450|
|         320|   -9.141482|   -8.945742|   -0.059408|   -0.000450|
|         321|   -9.146664|   -8.952516|   -0.059412|   -0.000450|
|         322|   -9.151870|   -8.959292|   -0.059415|   -0.000449|
|         323|   -9.157099|   -8.966068|   -0.059418|   -0.000449|
|         324|   -9.162352|   -8.972841|   -0.059421|   -0.000449|
|         325|   -9.167626|   -8.979609|   -0.059424|   -0.000449|
|         326|   -9.172922|   -8.986371|   -0.059427|   -0.000449|
|         327|   -9.178240|   -8.993127|   -0.059430|   -0.000449|
|         328|   -9.183580|   -8.999877|   -0.059433|   -0.000449|
|         329|   -9.188941|   -9.006622|   -0.059436|   -0.000449|
|         330|   -9.194326|   -9.013367|   -0.059439|   -0.000449|
|         331|   -9.199734|   -9.020113|   -0.059441|   -0.000449|
|         332|   -9.205167|   -9.026865|   -0.059444|   -0.000449|
|         333|   -9.210627|   -9.033630|   -0.059447|   -0.000449|
|         334|   -9.216115|   -9.040413|   -0.059450|   -0.000449|
|         335|   -9.221632|   -9.047219|   -0.059452|   -0.000449|
|         336|   -9.227181|   -9.054056|   -0.059455|   -0.000449|
|         337|   -9.232764|   -9.060929|   -0.059457|   -0.000449|
|         338|   -9.238381|   -9.067843|   -0.059460|   -0.000449|
|         339|   -9.244035|   -9.074803|   -0.059462|   -0.000449|
|         340|   -9.249727|   -9.081811|   -0.059465|   -0.000449|
|         341|   -9.255457|   -9.088870|   -0.059467|   -0.000449|
|         342|   -9.261227|   -9.095980|   -0.059470|   -0.000449|
|         343|   -9.267036|   -9.103141|   -0.059472|   -0.000449|
|         344|   -9.272885|   -9.110351|   -0.059474|   -0.000449|
|         345|   -9.278774|   -9.117607|   -0.059477|   -0.000449|
|         346|   -9.284702|   -9.124907|   -0.059479|   -0.000449|
|         347|   -9.290668|   -9.132244|   -0.059481|   -0.000449|
|         348|   -9.296673|   -9.139617|   -0.059483|   -0.000449|
|         349|   -9.302715|   -9.147018|   -0.059485|   -0.000449|
|         350|   -9.308793|   -9.154445|   -0.059488|   -0.000449|
|         351|   -9.314905|   -9.161892|   -0.059490|   -0.000449|
|         352|   -9.321052|   -9.169356|   -0.059492|   -0.000449|
|         353|   -9.327232|   -9.176833|   -0.059494|   -0.000449|
|         354|   -9.333444|   -9.184320|   -0.059496|   -0.000449|
|         355|   -9.339687|   -9.191813|   -0.059498|   -0.000448|
|         356|   -9.345961|   -9.199312|   -0.059500|   -0.000448|
|         357|   -9.352264|   -9.206814|   -0.059502|   -0.000448|
|         358|   -9.358597|   -9.214318|   -0.059503|   -0.000448|
|         359|   -9.364958|   -9.221823|   -0.059505|   -0.000448|
|         360|   -9.371348|   -9.229331|   -0.059507|   -0.000448|
|         361|   -9.377767|   -9.236841|   -0.059509|   -0.000448|
|         362|   -9.384213|   -9.244356|   -0.059511|   -0.000448|
|         363|   -9.390689|   -9.251876|   -0.059513|   -0.000448|
|         364|   -9.397193|   -9.259405|   -0.059514|   -0.000448|
|         365|   -9.403727|   -9.266945|   -0.059516|   -0.000448|
|         366|   -9.410291|   -9.274500|   -0.059518|   -0.000448|
|         367|   -9.416886|   -9.282073|   -0.059519|   -0.000448|
|         368|   -9.423513|   -9.289667|   -0.059521|   -0.000448|
|         369|   -9.430173|   -9.297287|   -0.059523|   -0.000448|
|         370|   -9.436866|   -9.304935|   -0.059524|   -0.000448|
|         371|   -9.443593|   -9.312614|   -0.059526|   -0.000448|
|         372|   -9.450355|   -9.320327|   -0.059527|   -0.000448|
|         373|   -9.457153|   -9.328075|   -0.059529|   -0.000448|
|         374|   -9.463987|   -9.335860|   -0.059530|   -0.000448|
|         375|   -9.470858|   -9.343681|   -0.059532|   -0.000448|
|         376|   -9.477765|   -9.351539|   -0.059533|   -0.000448|
|         377|   -9.484710|   -9.359433|   -0.059535|   -0.000448|
|         378|   -9.491692|   -9.367361|   -0.059536|   -0.000448|
|         379|   -9.498710|   -9.375320|   -0.059537|   -0.000448|
|         380|   -9.505765|   -9.383309|   -0.059539|   -0.000448|
|         381|   -9.512856|   -9.391324|   -0.059540|   -0.000448|
|         382|   -9.519982|   -9.399362|   -0.059542|   -0.000448|
|         383|   -9.527144|   -9.407421|   -0.059543|   -0.000448|
|         384|   -9.534340|   -9.415496|   -0.059544|   -0.000448|
|         385|   -9.541569|   -9.423586|   -0.059545|   -0.000448|
|         386|   -9.548832|   -9.431687|   -0.059547|   -0.000448|
|         387|   -9.556127|   -9.439798|   -0.059548|   -0.000448|
|         388|   -9.563454|   -9.447915|   -0.059549|   -0.000448|
|         389|   -9.570812|   -9.456037|   -0.059550|   -0.000448|
|         390|   -9.578200|   -9.464163|   -0.059552|   -0.000448|
|         391|   -9.585619|   -9.472292|   -0.059553|   -0.000448|
|         392|   -9.593067|   -9.480423|   -0.059554|   -0.000448|
|         393|   -9.600545|   -9.488558|   -0.059555|   -0.000448|
|         394|   -9.608053|   -9.496695|   -0.059556|   -0.000448|
|         395|   -9.615590|   -9.504836|   -0.059557|   -0.000448|
|         396|   -9.623156|   -9.512983|   -0.059558|   -0.000448|
|         397|   -9.630751|   -9.521137|   -0.059559|   -0.000448|
|         398|   -9.638376|   -9.529299|   -0.059561|   -0.000448|
|         399|   -9.646032|   -9.537472|   -0.059562|   -0.000448|
|         400|   -9.653717|   -9.545658|   -0.059563|   -0.000448|
|         401|   -9.661433|   -9.553859|   -0.059564|   -0.000448|
|         402|   -9.669180|   -9.562076|   -0.059565|   -0.000448|
|         403|   -9.676959|   -9.570313|   -0.059566|   -0.000448|
|         404|   -9.684770|   -9.578569|   -0.059567|   -0.000448|
|         405|   -9.692613|   -9.586847|   -0.059568|   -0.000448|
|         406|   -9.700489|   -9.595148|   -0.059568|   -0.000448|
|         407|   -9.708398|   -9.603472|   -0.059569|   -0.000448|
|         408|   -9.716340|   -9.611819|   -0.059570|   -0.000448|
|         409|   -9.724315|   -9.620189|   -0.059571|   -0.000448|
|         410|   -9.732324|   -9.628582|   -0.059572|   -0.000448|
|         411|   -9.740367|   -9.636996|   -0.059573|   -0.000448|
|         412|   -9.748442|   -9.645430|   -0.059574|   -0.000448|
|         413|   -9.756551|   -9.653882|   -0.059575|   -0.000448|
|         414|   -9.764693|   -9.662350|   -0.059576|   -0.000448|
|         415|   -9.772867|   -9.670833|   -0.059576|   -0.000448|
|         416|   -9.781074|   -9.679329|   -0.059577|   -0.000448|
|         417|   -9.789312|   -9.687834|   -0.059578|   -0.000448|
|         418|   -9.797582|   -9.696348|   -0.059579|   -0.000448|
|         419|   -9.805883|   -9.704868|   -0.059580|   -0.000448|
|         420|   -9.814214|   -9.713392|   -0.059580|   -0.000448|
|         421|   -9.822575|   -9.721920|   -0.059581|   -0.000448|
|         422|   -9.830966|   -9.730449|   -0.059582|   -0.000448|
|         423|   -9.839386|   -9.738978|   -0.059583|   -0.000448|
|         424|   -9.847835|   -9.747508|   -0.059583|   -0.000448|
|         425|   -9.856312|   -9.756037|   -0.059584|   -0.000448|
|         426|   -9.864818|   -9.764565|   -0.059585|   -0.000448|
|         427|   -9.873352|   -9.773093|   -0.059585|   -0.000448|
|         428|   -9.881915|   -9.781621|   -0.059586|   -0.000448|
|         429|   -9.890505|   -9.790150|   -0.059587|   -0.000448|
|         430|   -9.899123|   -9.798679|   -0.059588|   -0.000448|
|         431|   -9.907769|   -9.807211|   -0.059588|   -0.000448|
|         432|   -9.916443|   -9.815747|   -0.059589|   -0.000447|
|         433|   -9.925145|   -9.824286|   -0.059589|   -0.000447|
|         434|   -9.933876|   -9.832831|   -0.059590|   -0.000447|
|         435|   -9.942636|   -9.841383|   -0.059591|   -0.000447|
|         436|   -9.951424|   -9.849941|   -0.059591|   -0.000447|
|         437|   -9.960241|   -9.858508|   -0.059592|   -0.000447|
|         438|   -9.969087|   -9.867082|   -0.059593|   -0.000447|
|         439|   -9.977962|   -9.875666|   -0.059593|   -0.000447|
|         440|   -9.986867|   -9.884258|   -0.059594|   -0.000447|
|         441|   -9.995801|   -9.892858|   -0.059594|   -0.000447|
|         442|  -10.004764|   -9.901466|   -0.059595|   -0.000447|
|         443|  -10.013757|   -9.910081|   -0.059595|   -0.000447|
|         444|  -10.022779|   -9.918703|   -0.059596|   -0.000447|
|         445|  -10.031830|   -9.927330|   -0.059597|   -0.000447|
|         446|  -10.040911|   -9.935961|   -0.059597|   -0.000447|
|         447|  -10.050020|   -9.944594|   -0.059598|   -0.000447|
|         448|  -10.059157|   -9.953230|   -0.059598|   -0.000447|
|         449|  -10.068323|   -9.961865|   -0.059599|   -0.000447|
|         450|  -10.077516|   -9.970499|   -0.059599|   -0.000447|
|         451|  -10.086738|   -9.979130|   -0.059600|   -0.000447|
|         452|  -10.095986|   -9.987757|   -0.059600|   -0.000447|
|         453|  -10.105261|   -9.996379|   -0.059601|   -0.000447|
|         454|  -10.114563|  -10.004995|   -0.059601|   -0.000447|
|         455|  -10.123891|  -10.013604|   -0.059602|   -0.000447|
|         456|  -10.133246|  -10.022206|   -0.059602|   -0.000447|
|         457|  -10.142625|  -10.030800|   -0.059602|   -0.000447|
|         458|  -10.152030|  -10.039385|   -0.059603|   -0.000447|
|         459|  -10.161460|  -10.047962|   -0.059603|   -0.000447|
|         460|  -10.170915|  -10.056530|   -0.059604|   -0.000447|
|         461|  -10.180395|  -10.065090|   -0.059604|   -0.000447|
|         462|  -10.189899|  -10.073642|   -0.059605|   -0.000447|
|         463|  -10.199428|  -10.082185|   -0.059605|   -0.000447|
|         464|  -10.208981|  -10.090721|   -0.059606|   -0.000447|
|         465|  -10.218558|  -10.099250|   -0.059606|   -0.000447|
|         466|  -10.228160|  -10.107772|   -0.059606|   -0.000447|
|         467|  -10.237785|  -10.116287|   -0.059607|   -0.000447|
|         468|  -10.247435|  -10.124795|   -0.059607|   -0.000447|
|         469|  -10.257109|  -10.133297|   -0.059608|   -0.000447|
|         470|  -10.266807|  -10.141792|   -0.059608|   -0.000447|
|         471|  -10.276528|  -10.150281|   -0.059608|   -0.000447|
|         472|  -10.286274|  -10.158762|   -0.059609|   -0.000447|
|         473|  -10.296043|  -10.167237|   -0.059609|   -0.000447|
|         474|  -10.305835|  -10.175703|   -0.059609|   -0.000447|
|         475|  -10.315651|  -10.184161|   -0.059610|   -0.000447|
|         476|  -10.325490|  -10.192610|   -0.059610|   -0.000447|
|         477|  -10.335352|  -10.201049|   -0.059610|   -0.000447|
|         478|  -10.345237|  -10.209476|   -0.059611|   -0.000447|
|         479|  -10.355143|  -10.217892|   -0.059611|   -0.000447|
|         480|  -10.365072|  -10.226296|   -0.059611|   -0.000447|
|         481|  -10.375023|  -10.234685|   -0.059612|   -0.000447|
|         482|  -10.384994|  -10.243061|   -0.059612|   -0.000447|
|         483|  -10.394987|  -10.251420|   -0.059612|   -0.000447|
|         484|  -10.405000|  -10.259764|   -0.059613|   -0.000447|
|         485|  -10.415033|  -10.268092|   -0.059613|   -0.000447|
|         486|  -10.425086|  -10.276402|   -0.059613|   -0.000447|
|         487|  -10.435159|  -10.284694|   -0.059614|   -0.000447|
|         488|  -10.445250|  -10.292969|   -0.059614|   -0.000447|
|         489|  -10.455360|  -10.301226|   -0.059614|   -0.000447|
|         490|  -10.465488|  -10.309463|   -0.059615|   -0.000447|
|         491|  -10.475634|  -10.317682|   -0.059615|   -0.000447|
|         492|  -10.485797|  -10.325883|   -0.059615|   -0.000447|
|         493|  -10.495978|  -10.334065|   -0.059615|   -0.000447|
|         494|  -10.506175|  -10.342229|   -0.059616|   -0.000447|
|         495|  -10.516389|  -10.350374|   -0.059616|   -0.000447|
|         496|  -10.526618|  -10.358500|   -0.059616|   -0.000447|
|         497|  -10.536864|  -10.366609|   -0.059616|   -0.000447|
|         498|  -10.547125|  -10.374698|   -0.059617|   -0.000447|
|         499|  -10.557401|  -10.382770|   -0.059617|   -0.000447|
|         500|  -10.567692|  -10.390823|   -0.059617|   -0.000447|
+-----------------------------------------------------------------------+
|        File Writing Summary       |              Filename             |
+-----------------------------------------------------------------------+
|SU2 restart                        |restart_flow.dat                   |
|Paraview                           |flow.vtu                           |
|Paraview surface                   |surface_flow.vtu                   |
|CSV file                           |surface_flow.csv                   |
+-----------------------------------------------------------------------+
+----------------------------------------------------------------+
|  Inner_Iter|    rms[Rho]|   rms[RhoE]|          CL|          CD|
+----------------------------------------------------------------+
|         501|  -10.577996|  -10.398857|   -0.059617|   -0.000447|
|         502|  -10.588315|  -10.406872|   -0.059618|   -0.000447|
|         503|  -10.598648|  -10.414868|   -0.059618|   -0.000447|
|         504|  -10.608993|  -10.422845|   -0.059618|   -0.000447|
|         505|  -10.619351|  -10.430802|   -0.059618|   -0.000447|
|         506|  -10.629721|  -10.438739|   -0.059619|   -0.000447|
|         507|  -10.640103|  -10.446655|   -0.059619|   -0.000447|
|         508|  -10.650496|  -10.454550|   -0.059619|   -0.000447|
|         509|  -10.660900|  -10.462424|   -0.059619|   -0.000447|
|         510|  -10.671313|  -10.470275|   -0.059620|   -0.000447|
|         511|  -10.681736|  -10.478104|   -0.059620|   -0.000447|
|         512|  -10.692168|  -10.485910|   -0.059620|   -0.000447|
|         513|  -10.702608|  -10.493693|   -0.059620|   -0.000447|
|         514|  -10.713055|  -10.501453|   -0.059620|   -0.000447|
|         515|  -10.723510|  -10.509188|   -0.059621|   -0.000447|
|         516|  -10.733971|  -10.516900|   -0.059621|   -0.000447|
|         517|  -10.744438|  -10.524588|   -0.059621|   -0.000447|
|         518|  -10.754910|  -10.532251|   -0.059621|   -0.000447|
|         519|  -10.765387|  -10.539891|   -0.059621|   -0.000447|
|         520|  -10.775868|  -10.547507|   -0.059622|   -0.000447|
|         521|  -10.786352|  -10.555099|   -0.059622|   -0.000447|
|         522|  -10.796838|  -10.562667|   -0.059622|   -0.000447|
|         523|  -10.807327|  -10.570212|   -0.059622|   -0.000447|
|         524|  -10.817817|  -10.577733|   -0.059622|   -0.000447|
|         525|  -10.828307|  -10.585232|   -0.059623|   -0.000447|
|         526|  -10.838798|  -10.592707|   -0.059623|   -0.000447|
|         527|  -10.849288|  -10.600160|   -0.059623|   -0.000447|
|         528|  -10.859777|  -10.607590|   -0.059623|   -0.000447|
|         529|  -10.870264|  -10.614998|   -0.059623|   -0.000447|
|         530|  -10.880748|  -10.622384|   -0.059623|   -0.000447|
|         531|  -10.891228|  -10.629746|   -0.059624|   -0.000447|
|         532|  -10.901704|  -10.637088|   -0.059624|   -0.000447|
|         533|  -10.912176|  -10.644407|   -0.059624|   -0.000447|
|         534|  -10.922641|  -10.651703|   -0.059624|   -0.000447|
|         535|  -10.933099|  -10.658977|   -0.059624|   -0.000447|
|         536|  -10.943550|  -10.666230|   -0.059624|   -0.000447|
|         537|  -10.953993|  -10.673459|   -0.059625|   -0.000447|
|         538|  -10.964426|  -10.680666|   -0.059625|   -0.000447|
|         539|  -10.974849|  -10.687851|   -0.059625|   -0.000447|
|         540|  -10.985261|  -10.695013|   -0.059625|   -0.000447|
|         541|  -10.995661|  -10.702152|   -0.059625|   -0.000447|
|         542|  -11.006049|  -10.709270|   -0.059625|   -0.000447|
|         543|  -11.016423|  -10.716364|   -0.059625|   -0.000447|
|         544|  -11.026782|  -10.723436|   -0.059626|   -0.000447|
|         545|  -11.037125|  -10.730484|   -0.059626|   -0.000447|
|         546|  -11.047452|  -10.737512|   -0.059626|   -0.000447|
|         547|  -11.057762|  -10.744517|   -0.059626|   -0.000447|
|         548|  -11.068055|  -10.751501|   -0.059626|   -0.000447|
|         549|  -11.078328|  -10.758463|   -0.059626|   -0.000447|
|         550|  -11.088581|  -10.765405|   -0.059626|   -0.000447|
|         551|  -11.098814|  -10.772326|   -0.059627|   -0.000447|
|         552|  -11.109026|  -10.779226|   -0.059627|   -0.000447|
|         553|  -11.119216|  -10.786107|   -0.059627|   -0.000447|
|         554|  -11.129383|  -10.792968|   -0.059627|   -0.000447|
|         555|  -11.139525|  -10.799809|   -0.059627|   -0.000447|
|         556|  -11.149645|  -10.806634|   -0.059627|   -0.000447|
|         557|  -11.159738|  -10.813438|   -0.059627|   -0.000447|
|         558|  -11.169805|  -10.820226|   -0.059627|   -0.000447|
|         559|  -11.179845|  -10.826994|   -0.059627|   -0.000447|
|         560|  -11.189858|  -10.833747|   -0.059628|   -0.000447|
|         561|  -11.199841|  -10.840480|   -0.059628|   -0.000447|
|         562|  -11.209795|  -10.847198|   -0.059628|   -0.000447|
|         563|  -11.219719|  -10.853898|   -0.059628|   -0.000447|
|         564|  -11.229611|  -10.860581|   -0.059628|   -0.000447|
|         565|  -11.239471|  -10.867247|   -0.059628|   -0.000447|
|         566|  -11.249299|  -10.873898|   -0.059628|   -0.000447|
|         567|  -11.259093|  -10.880532|   -0.059628|   -0.000447|
|         568|  -11.268851|  -10.887148|   -0.059628|   -0.000447|
|         569|  -11.278575|  -10.893749|   -0.059629|   -0.000447|
|         570|  -11.288262|  -10.900334|   -0.059629|   -0.000447|
|         571|  -11.297912|  -10.906902|   -0.059629|   -0.000447|
|         572|  -11.307523|  -10.913454|   -0.059629|   -0.000447|
|         573|  -11.317097|  -10.919992|   -0.059629|   -0.000447|
|         574|  -11.326631|  -10.926513|   -0.059629|   -0.000447|
|         575|  -11.336125|  -10.933018|   -0.059629|   -0.000447|
|         576|  -11.345579|  -10.939509|   -0.059629|   -0.000447|
|         577|  -11.354992|  -10.945987|   -0.059629|   -0.000447|
|         578|  -11.364362|  -10.952448|   -0.059629|   -0.000447|
|         579|  -11.373692|  -10.958897|   -0.059629|   -0.000447|
|         580|  -11.382979|  -10.965331|   -0.059630|   -0.000447|
|         581|  -11.392224|  -10.971753|   -0.059630|   -0.000447|
|         582|  -11.401424|  -10.978161|   -0.059630|   -0.000447|
|         583|  -11.410582|  -10.984558|   -0.059630|   -0.000447|
|         584|  -11.419696|  -10.990942|   -0.059630|   -0.000447|
|         585|  -11.428767|  -10.997316|   -0.059630|   -0.000447|
|         586|  -11.437793|  -11.003677|   -0.059630|   -0.000447|
|         587|  -11.446775|  -11.010029|   -0.059630|   -0.000447|
|         588|  -11.455713|  -11.016369|   -0.059630|   -0.000447|
|         589|  -11.464606|  -11.022700|   -0.059630|   -0.000447|
|         590|  -11.473455|  -11.029021|   -0.059630|   -0.000447|
|         591|  -11.482257|  -11.035331|   -0.059630|   -0.000447|
|         592|  -11.491015|  -11.041632|   -0.059630|   -0.000447|
|         593|  -11.499727|  -11.047923|   -0.059631|   -0.000447|
|         594|  -11.508395|  -11.054206|   -0.059631|   -0.000447|
|         595|  -11.517017|  -11.060480|   -0.059631|   -0.000447|
|         596|  -11.525592|  -11.066743|   -0.059631|   -0.000447|
|         597|  -11.534121|  -11.072999|   -0.059631|   -0.000447|
|         598|  -11.542606|  -11.079245|   -0.059631|   -0.000447|
|         599|  -11.551044|  -11.085483|   -0.059631|   -0.000447|
|         600|  -11.559436|  -11.091712|   -0.059631|   -0.000447|
|         601|  -11.567780|  -11.097930|   -0.059631|   -0.000447|
|         602|  -11.576080|  -11.104142|   -0.059631|   -0.000447|
|         603|  -11.584334|  -11.110345|   -0.059631|   -0.000447|
|         604|  -11.592541|  -11.116538|   -0.059631|   -0.000447|
|         605|  -11.600704|  -11.122725|   -0.059631|   -0.000447|
|         606|  -11.608821|  -11.128903|   -0.059631|   -0.000447|
|         607|  -11.616893|  -11.135073|   -0.059631|   -0.000447|
|         608|  -11.624921|  -11.141235|   -0.059632|   -0.000447|
|         609|  -11.632904|  -11.147390|   -0.059632|   -0.000447|
|         610|  -11.640843|  -11.153538|   -0.059632|   -0.000447|
|         611|  -11.648739|  -11.159680|   -0.059632|   -0.000447|
|         612|  -11.656591|  -11.165814|   -0.059632|   -0.000447|
|         613|  -11.664403|  -11.171943|   -0.059632|   -0.000447|
|         614|  -11.672174|  -11.178068|   -0.059632|   -0.000447|
|         615|  -11.679902|  -11.184185|   -0.059632|   -0.000447|
|         616|  -11.687591|  -11.190299|   -0.059632|   -0.000447|
|         617|  -11.695238|  -11.196405|   -0.059632|   -0.000447|
|         618|  -11.702846|  -11.202507|   -0.059632|   -0.000447|
|         619|  -11.710416|  -11.208605|   -0.059632|   -0.000447|
|         620|  -11.717950|  -11.214701|   -0.059632|   -0.000447|
|         621|  -11.725444|  -11.220789|   -0.059632|   -0.000447|
|         622|  -11.732903|  -11.226876|   -0.059632|   -0.000447|
|         623|  -11.740324|  -11.232958|   -0.059632|   -0.000447|
|         624|  -11.747709|  -11.239035|   -0.059632|   -0.000447|
|         625|  -11.755059|  -11.245109|   -0.059632|   -0.000447|
|         626|  -11.762376|  -11.251183|   -0.059632|   -0.000447|
|         627|  -11.769657|  -11.257249|   -0.059633|   -0.000447|
|         628|  -11.776906|  -11.263314|   -0.059633|   -0.000447|
|         629|  -11.784119|  -11.269373|   -0.059633|   -0.000447|
|         630|  -11.791301|  -11.275430|   -0.059633|   -0.000447|
|         631|  -11.798450|  -11.281483|   -0.059633|   -0.000447|
|         632|  -11.805567|  -11.287533|   -0.059633|   -0.000447|
|         633|  -11.812654|  -11.293580|   -0.059633|   -0.000447|
|         634|  -11.819707|  -11.299620|   -0.059633|   -0.000447|
|         635|  -11.826735|  -11.305663|   -0.059633|   -0.000447|
|         636|  -11.833727|  -11.311695|   -0.059633|   -0.000447|
|         637|  -11.840696|  -11.317730|   -0.059633|   -0.000447|
|         638|  -11.847634|  -11.323759|   -0.059633|   -0.000447|
|         639|  -11.854542|  -11.329785|   -0.059633|   -0.000447|
|         640|  -11.861426|  -11.335808|   -0.059633|   -0.000447|
|         641|  -11.868284|  -11.341830|   -0.059633|   -0.000447|
|         642|  -11.875113|  -11.347846|   -0.059633|   -0.000447|
|         643|  -11.881919|  -11.353863|   -0.059633|   -0.000447|
|         644|  -11.888704|  -11.359880|   -0.059633|   -0.000447|
|         645|  -11.895460|  -11.365891|   -0.059633|   -0.000447|
|         646|  -11.902195|  -11.371900|   -0.059633|   -0.000447|
|         647|  -11.908908|  -11.377910|   -0.059633|   -0.000447|
|         648|  -11.915600|  -11.383917|   -0.059633|   -0.000447|
|         649|  -11.922268|  -11.389920|   -0.059633|   -0.000447|
|         650|  -11.928920|  -11.395927|   -0.059633|   -0.000447|
|         651|  -11.935548|  -11.401929|   -0.059633|   -0.000447|
|         652|  -11.942160|  -11.407933|   -0.059633|   -0.000447|
|         653|  -11.948753|  -11.413935|   -0.059634|   -0.000447|
|         654|  -11.955327|  -11.419936|   -0.059634|   -0.000447|
|         655|  -11.961884|  -11.425938|   -0.059634|   -0.000447|
|         656|  -11.968423|  -11.431936|   -0.059634|   -0.000447|
|         657|  -11.974946|  -11.437935|   -0.059634|   -0.000447|
|         658|  -11.981451|  -11.443932|   -0.059634|   -0.000447|
|         659|  -11.987941|  -11.449930|   -0.059634|   -0.000447|
|         660|  -11.994416|  -11.455927|   -0.059634|   -0.000447|
|         661|  -12.000878|  -11.461925|   -0.059634|   -0.000447|
|         662|  -12.007322|  -11.467921|   -0.059634|   -0.000447|
|         663|  -12.013753|  -11.473914|   -0.059634|   -0.000447|
|         664|  -12.020171|  -11.479911|   -0.059634|   -0.000447|
|         665|  -12.026575|  -11.485906|   -0.059634|   -0.000447|
|         666|  -12.032962|  -11.491896|   -0.059634|   -0.000447|
|         667|  -12.039342|  -11.497891|   -0.059634|   -0.000447|
|         668|  -12.045705|  -11.503881|   -0.059634|   -0.000447|
|         669|  -12.052058|  -11.509873|   -0.059634|   -0.000447|
|         670|  -12.058395|  -11.515860|   -0.059634|   -0.000447|
|         671|  -12.064728|  -11.521854|   -0.059634|   -0.000447|
|         672|  -12.071047|  -11.527844|   -0.059634|   -0.000447|
|         673|  -12.077353|  -11.533832|   -0.059634|   -0.000447|
|         674|  -12.083651|  -11.539823|   -0.059634|   -0.000447|
|         675|  -12.089938|  -11.545810|   -0.059634|   -0.000447|
|         676|  -12.096219|  -11.551803|   -0.059634|   -0.000447|
|         677|  -12.102483|  -11.557787|   -0.059634|   -0.000447|
|         678|  -12.108748|  -11.563781|   -0.059634|   -0.000447|
|         679|  -12.114996|  -11.569765|   -0.059634|   -0.000447|
|         680|  -12.121240|  -11.575756|   -0.059634|   -0.000447|
|         681|  -12.127482|  -11.581751|   -0.059634|   -0.000447|
|         682|  -12.133706|  -11.587735|   -0.059634|   -0.000447|
|         683|  -12.139930|  -11.593729|   -0.059634|   -0.000447|
|         684|  -12.146147|  -11.599721|   -0.059634|   -0.000447|
|         685|  -12.152352|  -11.605711|   -0.059634|   -0.000447|
|         686|  -12.158557|  -11.611706|   -0.059634|   -0.000447|
|         687|  -12.164755|  -11.617700|   -0.059634|   -0.000447|
|         688|  -12.170945|  -11.623692|   -0.059634|   -0.000447|
|         689|  -12.177132|  -11.629689|   -0.059634|   -0.000447|
|         690|  -12.183313|  -11.635685|   -0.059634|   -0.000447|
|         691|  -12.189491|  -11.641682|   -0.059634|   -0.000447|
|         692|  -12.195659|  -11.647677|   -0.059634|   -0.000447|
|         693|  -12.201820|  -11.653673|   -0.059634|   -0.000447|
|         694|  -12.207984|  -11.659673|   -0.059635|   -0.000447|
|         695|  -12.214143|  -11.665675|   -0.059635|   -0.000447|
|         696|  -12.220295|  -11.671674|   -0.059635|   -0.000447|
|         697|  -12.226440|  -11.677673|   -0.059635|   -0.000447|
|         698|  -12.232581|  -11.683669|   -0.059635|   -0.000447|
|         699|  -12.238723|  -11.689673|   -0.059635|   -0.000447|
|         700|  -12.244860|  -11.695677|   -0.059635|   -0.000447|
|         701|  -12.250990|  -11.701676|   -0.059635|   -0.000447|
|         702|  -12.257116|  -11.707677|   -0.059635|   -0.000447|
|         703|  -12.263242|  -11.713681|   -0.059635|   -0.000447|
|         704|  -12.269363|  -11.719684|   -0.059635|   -0.000447|
|         705|  -12.275488|  -11.725696|   -0.059635|   -0.000447|
|         706|  -12.281601|  -11.731699|   -0.059635|   -0.000447|
|         707|  -12.287713|  -11.737702|   -0.059635|   -0.000447|
|         708|  -12.293821|  -11.743708|   -0.059635|   -0.000447|
|         709|  -12.299931|  -11.749719|   -0.059635|   -0.000447|
|         710|  -12.306041|  -11.755731|   -0.059635|   -0.000447|
|         711|  -12.312139|  -11.761734|   -0.059635|   -0.000447|
|         712|  -12.318241|  -11.767744|   -0.059635|   -0.000447|
|         713|  -12.324343|  -11.773758|   -0.059635|   -0.000447|
|         714|  -12.330437|  -11.779767|   -0.059635|   -0.000447|
|         715|  -12.336533|  -11.785780|   -0.059635|   -0.000447|
|         716|  -12.342632|  -11.791800|   -0.059635|   -0.000447|
|         717|  -12.348733|  -11.797823|   -0.059635|   -0.000447|
|         718|  -12.354823|  -11.803835|   -0.059635|   -0.000447|
|         719|  -12.360912|  -11.809851|   -0.059635|   -0.000447|
|         720|  -12.367004|  -11.815873|   -0.059635|   -0.000447|
|         721|  -12.373083|  -11.821884|   -0.059635|   -0.000447|
|         722|  -12.379179|  -11.827912|   -0.059635|   -0.000447|
|         723|  -12.385267|  -11.833935|   -0.059635|   -0.000447|
|         724|  -12.391350|  -11.839955|   -0.059635|   -0.000447|
|         725|  -12.397439|  -11.845984|   -0.059635|   -0.000447|
|         726|  -12.403522|  -11.852005|   -0.059635|   -0.000447|
|         727|  -12.409605|  -11.858031|   -0.059635|   -0.000447|
|         728|  -12.415693|  -11.864067|   -0.059635|   -0.000447|
|         729|  -12.421771|  -11.870088|   -0.059635|   -0.000447|
|         730|  -12.427851|  -11.876117|   -0.059635|   -0.000447|
|         731|  -12.433931|  -11.882146|   -0.059635|   -0.000447|
|         732|  -12.440017|  -11.888183|   -0.059635|   -0.000447|
|         733|  -12.446099|  -11.894220|   -0.059635|   -0.000447|
|         734|  -12.452174|  -11.900247|   -0.059635|   -0.000447|
|         735|  -12.458256|  -11.906285|   -0.059635|   -0.000447|
|         736|  -12.464325|  -11.912309|   -0.059635|   -0.000447|
|         737|  -12.470410|  -11.918356|   -0.059635|   -0.000447|
|         738|  -12.476485|  -11.924387|   -0.059635|   -0.000447|
|         739|  -12.482570|  -11.930429|   -0.059635|   -0.000447|
|         740|  -12.488638|  -11.936461|   -0.059635|   -0.000447|
|         741|  -12.494711|  -11.942497|   -0.059635|   -0.000447|
|         742|  -12.500796|  -11.948543|   -0.059635|   -0.000447|
|         743|  -12.506881|  -11.954595|   -0.059635|   -0.000447|
|         744|  -12.512948|  -11.960622|   -0.059635|   -0.000447|
|         745|  -12.519038|  -11.966683|   -0.059635|   -0.000447|
|         746|  -12.525102|  -11.972714|   -0.059635|   -0.000447|
|         747|  -12.531191|  -11.978770|   -0.059635|   -0.000447|
|         748|  -12.537262|  -11.984812|   -0.059635|   -0.000447|
|         749|  -12.543347|  -11.990865|   -0.059635|   -0.000447|
|         750|  -12.549428|  -11.996920|   -0.059635|   -0.000447|
+-----------------------------------------------------------------------+
|        File Writing Summary       |              Filename             |
+-----------------------------------------------------------------------+
|SU2 restart                        |restart_flow.dat                   |
|Paraview                           |flow.vtu                           |
|Paraview surface                   |surface_flow.vtu                   |
|CSV file                           |surface_flow.csv                   |
+-----------------------------------------------------------------------+
+----------------------------------------------------------------+
|  Inner_Iter|    rms[Rho]|   rms[RhoE]|          CL|          CD|
+----------------------------------------------------------------+
|         751|  -12.555502|  -12.002963|   -0.059635|   -0.000447|
|         752|  -12.561578|  -12.009011|   -0.059635|   -0.000447|
|         753|  -12.567657|  -12.015065|   -0.059635|   -0.000447|
|         754|  -12.573738|  -12.021120|   -0.059635|   -0.000447|
|         755|  -12.579832|  -12.027187|   -0.059635|   -0.000447|
|         756|  -12.585903|  -12.033237|   -0.059635|   -0.000447|
|         757|  -12.591982|  -12.039291|   -0.059635|   -0.000447|
|         758|  -12.598069|  -12.045353|   -0.059635|   -0.000447|
|         759|  -12.604149|  -12.051413|   -0.059635|   -0.000447|
|         760|  -12.610222|  -12.057464|   -0.059635|   -0.000447|
|         761|  -12.616303|  -12.063519|   -0.059635|   -0.000447|
|         762|  -12.622400|  -12.069596|   -0.059635|   -0.000447|
|         763|  -12.628477|  -12.075653|   -0.059635|   -0.000447|
|         764|  -12.634559|  -12.081714|   -0.059635|   -0.000447|
|         765|  -12.640638|  -12.087773|   -0.059635|   -0.000447|
|         766|  -12.646734|  -12.093850|   -0.059635|   -0.000447|
|         767|  -12.652806|  -12.099905|   -0.059635|   -0.000447|
|         768|  -12.658886|  -12.105966|   -0.059635|   -0.000447|
|         769|  -12.664987|  -12.112054|   -0.059635|   -0.000447|
|         770|  -12.671066|  -12.118111|   -0.059635|   -0.000447|
|         771|  -12.677157|  -12.124188|   -0.059635|   -0.000447|
|         772|  -12.683240|  -12.130253|   -0.059635|   -0.000447|
|         773|  -12.689324|  -12.136323|   -0.059635|   -0.000447|
|         774|  -12.695416|  -12.142402|   -0.059635|   -0.000447|
|         775|  -12.701503|  -12.148473|   -0.059635|   -0.000447|
|         776|  -12.707582|  -12.154537|   -0.059635|   -0.000447|
|         777|  -12.713681|  -12.160620|   -0.059635|   -0.000447|
|         778|  -12.719773|  -12.166702|   -0.059635|   -0.000447|
|         779|  -12.725866|  -12.172778|   -0.059635|   -0.000447|
|         780|  -12.731967|  -12.178869|   -0.059635|   -0.000447|
|         781|  -12.738047|  -12.184935|   -0.059635|   -0.000447|
|         782|  -12.744129|  -12.191002|   -0.059635|   -0.000447|
|         783|  -12.750227|  -12.197089|   -0.059635|   -0.000447|
|         784|  -12.756334|  -12.203184|   -0.059635|   -0.000447|
|         785|  -12.762416|  -12.209249|   -0.059635|   -0.000447|
|         786|  -12.768500|  -12.215327|   -0.059635|   -0.000447|
|         787|  -12.774623|  -12.221435|   -0.059635|   -0.000447|
|         788|  -12.780698|  -12.227503|   -0.059635|   -0.000447|
|         789|  -12.786785|  -12.233580|   -0.059635|   -0.000447|
|         790|  -12.792889|  -12.239675|   -0.059635|   -0.000447|
|         791|  -12.798986|  -12.245758|   -0.059635|   -0.000447|
|         792|  -12.805082|  -12.251845|   -0.059635|   -0.000447|
|         793|  -12.811186|  -12.257935|   -0.059635|   -0.000447|
|         794|  -12.817281|  -12.264025|   -0.059635|   -0.000447|
|         795|  -12.823393|  -12.270126|   -0.059635|   -0.000447|
|         796|  -12.829472|  -12.276198|   -0.059636|   -0.000447|
|         797|  -12.835600|  -12.282321|   -0.059636|   -0.000447|
|         798|  -12.841683|  -12.288387|   -0.059636|   -0.000447|
|         799|  -12.847782|  -12.294479|   -0.059636|   -0.000447|
|         800|  -12.853870|  -12.300558|   -0.059636|   -0.000447|
|         801|  -12.859968|  -12.306649|   -0.059636|   -0.000447|
|         802|  -12.866078|  -12.312753|   -0.059636|   -0.000447|
|         803|  -12.872203|  -12.318866|   -0.059636|   -0.000447|
|         804|  -12.878293|  -12.324954|   -0.059636|   -0.000447|
|         805|  -12.884392|  -12.331038|   -0.059636|   -0.000447|
|         806|  -12.890495|  -12.337143|   -0.059636|   -0.000447|
|         807|  -12.896606|  -12.343246|   -0.059636|   -0.000447|
|         808|  -12.902686|  -12.349319|   -0.059636|   -0.000447|
|         809|  -12.908815|  -12.355438|   -0.059636|   -0.000447|
|         810|  -12.914929|  -12.361547|   -0.059636|   -0.000447|
|         811|  -12.921027|  -12.367638|   -0.059636|   -0.000447|
|         812|  -12.927121|  -12.373722|   -0.059636|   -0.000447|
|         813|  -12.933261|  -12.379855|   -0.059636|   -0.000447|
|         814|  -12.939341|  -12.385932|   -0.059636|   -0.000447|
|         815|  -12.945444|  -12.392031|   -0.059636|   -0.000447|
|         816|  -12.951551|  -12.398129|   -0.059636|   -0.000447|
|         817|  -12.957672|  -12.404242|   -0.059636|   -0.000447|
|         818|  -12.963759|  -12.410323|   -0.059636|   -0.000447|
|         819|  -12.969887|  -12.416448|   -0.059636|   -0.000447|
|         820|  -12.976000|  -12.422559|   -0.059636|   -0.000447|
|         821|  -12.982093|  -12.428642|   -0.059636|   -0.000447|
|         822|  -12.988198|  -12.434742|   -0.059636|   -0.000447|
|         823|  -12.994305|  -12.440846|   -0.059636|   -0.000447|
|         824|  -13.000438|  -12.446975|   -0.059636|   -0.000447|

----------------------------- Solver Exit -------------------------------
All convergence criteria satisfied.
+-----------------------------------------------------------------------+
|      Convergence Field     |     Value    |   Criterion  |  Converged |
+-----------------------------------------------------------------------+
|                    rms[Rho]|      -13.0004|         < -13|         Yes|
+-----------------------------------------------------------------------+
-------------------------------------------------------------------------
+-----------------------------------------------------------------------+
|        File Writing Summary       |              Filename             |
+-----------------------------------------------------------------------+
|SU2 restart                        |restart_flow.dat                   |
|Paraview                           |flow.vtu                           |
|Paraview surface                   |surface_flow.vtu                   |
|CSV file                           |surface_flow.csv                   |
+-----------------------------------------------------------------------+

------------------------- Solver Postprocessing -------------------------
Deleted CNumerics container.
Deleted CIntegration container.
Deleted CSolver container.
Deleted CIteration container.
Deleted CInterpolator container.
Deleted CInterface container.
Deleted CGeometry container.
Deleted CFreeFormDefBox class.
Deleted CSurfaceMovement class.
Deleted CVolumetricMovement class.
Deleted CConfig container.
Deleted nInst container.
Deleted COutput class.
-------------------------------------------------------------------------

------------------------- Exit Success (SU2_CFD) ------------------------

