
-------------------------------------------------------------------------
|    ___ _   _ ___                                                      |
|   / __| | | |_  )   Release 7.0.5 "Blackbird"                         |
|   \__ \ |_| |/ /                                                      |
|   |___/\___//___|   Suite (Computational Fluid Dynamics Code)         |
|                                                                       |
-------------------------------------------------------------------------
| SU2 Project Website: https://su2code.github.io                        |
|                                                                       |
| The SU2 Project is maintained by the SU2 Foundation                   |
| (http://su2foundation.org)                                            |
-------------------------------------------------------------------------
| Copyright 2012-2020, SU2 Contributors                                 |
|                                                                       |
| SU2 is free software; you can redistribute it and/or                  |
| modify it under the terms of the GNU Lesser General Public            |
| License as published by the Free Software Foundation; either          |
| version 2.1 of the License, or (at your option) any later version.    |
|                                                                       |
| SU2 is distributed in the hope that it will be useful,                |
| but WITHOUT ANY WARRANTY; without even the implied warranty of        |
| MERCHANTABILITY or FITNESS FOR A PARTICULAR PURPOSE. See the GNU      |
| Lesser General Public License for more details.                       |
|                                                                       |
| You should have received a copy of the GNU Lesser General Public      |
| License along with SU2. If not, see <http://www.gnu.org/licenses/>.   |
-------------------------------------------------------------------------

Parsing config file for zone 0

----------------- Physical Case Definition ( Zone 0 ) -------------------
Compressible Euler equations.
Mach number: 0.2.
Angle of attack (AoA): 0 deg, and angle of sideslip (AoS): 0 deg.
No restart solution, use the values at infinity (freestream).
Non-Dimensional simulation (P=1.0, Rho=1.0, T=1.0 at the farfield).
The reference area is 1 m^2.
The semi-span will be computed using the max y(3D) value.
The reference length is 1 m.
Reference origin for moment evaluation is (0.25, 0, 0).
Surface(s) where the force coefficients are evaluated: airfoil.

Surface(s) plotted in the output file: airfoil.
Surface(s) affected by the design variables: airfoil.
Input mesh file name: mesh_NACA0012_inv_deform.su2

--------------- Space Numerical Integration ( Zone 0 ) ------------------
Jameson-Schmidt-Turkel scheme (2nd order in space) for the flow inviscid terms.
JST viscous coefficients (2nd & 4th): 0.5, 0.02.
The method includes a grid stretching correction (p = 0.3).
Gradient for upwind reconstruction: Green-Gauss.
Gradient for viscous and source terms: Green-Gauss.

--------------- Time Numerical Integration  ( Zone 0 ) ------------------
Local time stepping (steady state simulation).
Euler implicit method for the flow equations.
FGMRES is used for solving the linear system.
Using a LU-SGS preconditioning.
Convergence criteria of the linear solver: 0.0001.
Max number of linear iterations: 2.
V Multigrid Cycle, with 2 multigrid levels.
Damping factor for the residual restriction: 1.
Damping factor for the correction prolongation: 1.
No CFL adaptation.
+-------------------------------------------+
|  MG Level| Presmooth|PostSmooth|CorrectSmo|
+-------------------------------------------+
|         0|         1|         0|         0|
|         1|         2|         0|         0|
|         2|         3|         0|         0|
+-------------------------------------------+
Courant-Friedrichs-Lewy number:       10

------------------ Convergence Criteria  ( Zone 0 ) ---------------------
Maximum number of solver subiterations: 1000.
Begin convergence monitoring at iteration 10.
Residual minimum value: 1e-13.
Cauchy series min. value: 1e-06.
Number of Cauchy elements: 100.
Begin windowed time average at iteration 0.

-------------------- Output Information ( Zone 0 ) ----------------------
Writing solution files every 250 iterations.
Writing the convergence history file every 1 inner iterations.
Writing the screen convergence history every 1 inner iterations.
The tabular file format is CSV (.csv).
Convergence history file name: history_direct.
Forces breakdown file name: forces_breakdown.dat.
Surface file name: surface_flow.
Volume file name: flow.
Restart file name: restart_flow.dat.

------------- Config File Boundary Information ( Zone 0 ) ---------------
+-----------------------------------------------------------------------+
|                        Marker Type|                        Marker Name|
+-----------------------------------------------------------------------+
|                         Euler wall|                            airfoil|
+-----------------------------------------------------------------------+
|                          Far-field|                           farfield|
+-----------------------------------------------------------------------+

-------------------- Output Preprocessing ( Zone 0 ) --------------------
Screen output fields: INNER_ITER, RMS_DENSITY, RMS_ENERGY, LIFT, DRAG
History output group(s): ITER, RMS_RES, AERO_COEFF
Convergence field(s): RMS_DENSITY
Warning: No (valid) fields chosen for time convergence monitoring. Time convergence monitoring inactive.
Volume output fields: COORDINATES, SOLUTION, PRIMITIVE

------------------- Geometry Preprocessing ( Zone 0 ) -------------------
Two dimensional problem.
5233 grid points.
10216 volume elements.
2 surface markers.
200 boundary elements in index 0 (Marker = airfoil).
50 boundary elements in index 1 (Marker = farfield).
10216 triangles.
Setting point connectivity.
Renumbering points (Reverse Cuthill McKee Ordering).
Recomputing point connectivity.
Setting element connectivity.
Checking the numerical grid orientation.
Identifying edges and vertices.
Computing centers of gravity.
Setting the control volume structure.
Area of the computational grid: 1253.25.
Searching for the closest normal neighbors to the surfaces.
Storing a mapping from global to local point index.
Compute the surface curvature.
Max K: 7835.1. Mean K: 34.8203. Standard deviation K: 494.448.
Checking for periodicity.
Computing mesh quality statistics for the dual control volumes.
+--------------------------------------------------------------+
|           Mesh Quality Metric|        Minimum|        Maximum|
+--------------------------------------------------------------+
|    Orthogonality Angle (deg.)|        62.6722|        89.7085|
|     CV Face Area Aspect Ratio|              1|        7.18345|
|           CV Sub-Volume Ratio|        1.00285|        6.47829|
+--------------------------------------------------------------+
Setting the multigrid structure.
+-------------------------------------------+
|  MG Level|       CVs|Aggl. Rate|       CFL|
+-------------------------------------------+
|         0|      5233|    1/1.00|        10|
|         1|      1533|    1/3.41|   8.11871|
|         2|       443|    1/3.46|    6.5465|
+-------------------------------------------+
Finding max control volume width.
Wetted area = 2.03922 m.
Area projection in the x-plane = 0.119982 m, y-plane = 0.999845 m.
Max. coordinate in the x-direction = 1 m, y-direction = 0.0600008 m.
Min. coordinate in the x-direction = 0 m, y-direction = -0.060013 m.
Checking if Euler & Symmetry markers are straight/plane:
Boundary marker airfoil is NOT a single straight.
Computing wall distances.

-------------------- Solver Preprocessing ( Zone 0 ) --------------------
Inviscid flow: Computing density based on free-stream
temperature and pressure using the ideal gas law.
Force coefficients computed using free-stream values.

-- Models:
+------------------------------------------------------------------------------+
|          Viscosity Model|        Conductivity Model|              Fluid Model|
+------------------------------------------------------------------------------+
|                        -|                         -|             STANDARD_AIR|
+------------------------------------------------------------------------------+
-- Fluid properties:
+------------------------------------------------------------------------------+
|                  Name|    Dim. value|    Ref. value|      Unit|Non-dim. value|
+------------------------------------------------------------------------------+
|          Gas Constant|       287.058|       287.058|  N.m/kg.K|             1|
|      Spec. Heat Ratio|             -|             -|         -|           1.4|
+------------------------------------------------------------------------------+
-- Initial and free-stream conditions:
+------------------------------------------------------------------------------+
|                  Name|    Dim. value|    Ref. value|      Unit|Non-dim. value|
+------------------------------------------------------------------------------+
|       Static Pressure|        101325|        101325|        Pa|             1|
|               Density|       1.22498|       1.22498|    kg/m^3|             1|
|           Temperature|        288.15|        288.15|         K|             1|
|          Total Energy|        209105|       82715.8|   m^2/s^2|         2.528|
|            Velocity-X|       68.0594|       287.603|       m/s|      0.236643|
|            Velocity-Y|             0|       287.603|       m/s|             0|
|    Velocity Magnitude|       68.0594|       287.603|       m/s|      0.236643|
+------------------------------------------------------------------------------+
|           Mach Number|             -|             -|         -|           0.2|
+------------------------------------------------------------------------------+
Initialize Jacobian structure (Euler). MG level: 0.
Initialize Jacobian structure (Euler). MG level: 1.
Initialize Jacobian structure (Euler). MG level: 2.

------------------- Numerics Preprocessing ( Zone 0 ) -------------------

----------------- Integration Preprocessing ( Zone 0 ) ------------------

------------------- Iteration Preprocessing ( Zone 0 ) ------------------
Euler/Navier-Stokes/RANS fluid iteration.

------------------------------ Begin Solver -----------------------------

Simulation Run using the Single-zone Driver
+----------------------------------------------------------------+
|  Inner_Iter|    rms[Rho]|   rms[RhoE]|          CL|          CD|
+----------------------------------------------------------------+
|           0|   -4.193791|   -3.646262|   -0.049098|    0.740812|
|           1|   -4.314723|   -3.759138|    0.087020|   -0.020086|
|           2|   -4.429187|   -3.878103|    0.032076|   -0.125734|
|           3|   -4.424260|   -3.866784|   -0.036448|   -0.028391|
|           4|   -4.361999|   -3.811455|   -0.039929|    0.070069|
|           5|   -4.387452|   -3.838714|    0.014976|    0.069421|
|           6|   -4.476617|   -3.921555|    0.041664|   -0.011364|
|           7|   -4.420642|   -3.873363|    0.001767|   -0.041025|
|           8|   -4.670805|   -4.115544|   -0.031089|    0.008810|
|           9|   -4.555797|   -4.007284|   -0.009194|    0.037156|
|          10|   -4.835092|   -4.285523|    0.021151|    0.004381|
|          11|   -4.798523|   -4.246793|    0.013887|   -0.022943|
|          12|   -4.888683|   -4.341365|   -0.010393|   -0.005588|
|          13|   -5.114086|   -4.559232|   -0.013754|    0.018061|
|          14|   -5.023660|   -4.473701|    0.001969|    0.009825|
|          15|   -5.268920|   -4.721197|    0.010996|   -0.011327|
|          16|   -5.272551|   -4.720940|    0.003706|   -0.010649|
|          17|   -5.360972|   -4.814420|   -0.005816|    0.006436|
|          18|   -5.550529|   -4.997909|   -0.004351|    0.010932|
|          19|   -5.527954|   -4.977372|    0.003087|   -0.000738|
|          20|   -5.658875|   -5.110094|    0.004854|   -0.007887|
|          21|   -5.651036|   -5.102170|    0.000277|   -0.001658|
|          22|   -5.686873|   -5.141948|   -0.002526|    0.005228|
|          23|   -5.799142|   -5.250628|   -0.000228|    0.002619|
|          24|   -5.689606|   -5.142524|    0.002150|   -0.002657|
|          25|   -5.844185|   -5.296953|    0.001244|   -0.002144|
|          26|   -5.764948|   -5.216294|   -0.000419|    0.001333|
|          27|   -5.812078|   -5.267199|   -0.000183|    0.001650|
|          28|   -5.938295|   -5.386934|    0.001058|   -0.000568|
|          29|   -5.856387|   -5.308237|    0.001279|   -0.001126|
|          30|   -6.025531|   -5.478989|    0.000580|    0.000326|
|          31|   -5.990716|   -5.443129|    0.000315|    0.000959|
|          32|   -6.045276|   -5.500512|    0.000696|   -0.000001|
|          33|   -6.142505|   -5.594524|    0.001009|   -0.000726|
|          34|   -6.127905|   -5.580198|    0.000907|   -0.000211|
|          35|   -6.211328|   -5.664432|    0.000659|    0.000545|
|          36|   -6.245647|   -5.697881|    0.000591|    0.000445|
|          37|   -6.266653|   -5.721409|    0.000684|   -0.000205|
|          38|   -6.302099|   -5.758892|    0.000766|   -0.000452|
|          39|   -6.320368|   -5.776949|    0.000781|   -0.000105|
|          40|   -6.348139|   -5.803610|    0.000759|    0.000279|
|          41|   -6.371903|   -5.826731|    0.000750|    0.000206|
|          42|   -6.393051|   -5.848506|    0.000742|   -0.000108|
|          43|   -6.428441|   -5.883590|    0.000753|   -0.000204|
|          44|   -6.448630|   -5.902247|    0.000798|   -0.000035|
|          45|   -6.471773|   -5.924048|    0.000849|    0.000102|
|          46|   -6.499049|   -5.949677|    0.000858|    0.000049|
|          47|   -6.512883|   -5.962430|    0.000817|   -0.000060|
|          48|   -6.549778|   -5.998720|    0.000780|   -0.000065|
|          49|   -6.584459|   -6.032756|    0.000795|    0.000005|
|          50|   -6.602125|   -6.049744|    0.000839|    0.000026|
|          51|   -6.630857|   -6.076690|    0.000856|   -0.000018|
|          52|   -6.654502|   -6.098997|    0.000833|   -0.000053|
|          53|   -6.677814|   -6.122890|    0.000809|   -0.000035|
|          54|   -6.709811|   -6.156283|    0.000817|    0.000000|
|          55|   -6.737722|   -6.185247|    0.000851|    0.000004|
|          56|   -6.762964|   -6.210657|    0.000883|   -0.000025|
|          57|   -6.790049|   -6.237528|    0.000892|   -0.000050|
|          58|   -6.817611|   -6.265560|    0.000890|   -0.000043|
|          59|   -6.847365|   -6.296749|    0.000898|   -0.000019|
|          60|   -6.878486|   -6.329739|    0.000920|   -0.000009|
|          61|   -6.907915|   -6.361128|    0.000942|   -0.000021|
|          62|   -6.935152|   -6.390649|    0.000953|   -0.000038|
|          63|   -6.960987|   -6.419363|    0.000953|   -0.000040|
|          64|   -6.986923|   -6.448688|    0.000953|   -0.000031|
|          65|   -7.014267|   -6.479706|    0.000959|   -0.000024|
|          66|   -7.041857|   -6.511187|    0.000967|   -0.000025|
|          67|   -7.068972|   -6.542530|    0.000970|   -0.000032|
|          68|   -7.096195|   -6.574239|    0.000967|   -0.000035|
|          69|   -7.122637|   -6.604931|    0.000962|   -0.000034|
|          70|   -7.148453|   -6.634632|    0.000961|   -0.000032|
|          71|   -7.174860|   -6.665042|    0.000963|   -0.000032|
|          72|   -7.200930|   -6.695485|    0.000964|   -0.000035|
|          73|   -7.226663|   -6.726001|    0.000961|   -0.000037|
|          74|   -7.253487|   -6.757993|    0.000954|   -0.000036|
|          75|   -7.280511|   -6.790220|    0.000947|   -0.000036|
|          76|   -7.306076|   -6.820860|    0.000942|   -0.000037|
|          77|   -7.330324|   -6.850286|    0.000937|   -0.000039|
|          78|   -7.354111|   -6.879461|    0.000929|   -0.000040|
|          79|   -7.378191|   -6.909148|    0.000918|   -0.000040|
|          80|   -7.402705|   -6.939442|    0.000906|   -0.000039|
|          81|   -7.426974|   -6.969465|    0.000894|   -0.000040|
|          82|   -7.450388|   -6.998455|    0.000882|   -0.000041|
|          83|   -7.472942|   -7.026418|    0.000870|   -0.000042|
|          84|   -7.494986|   -7.053741|    0.000857|   -0.000043|
|          85|   -7.516841|   -7.080738|    0.000844|   -0.000042|
|          86|   -7.538556|   -7.107426|    0.000831|   -0.000042|
|          87|   -7.559972|   -7.133650|    0.000818|   -0.000043|
|          88|   -7.581026|   -7.159461|    0.000807|   -0.000043|
|          89|   -7.601760|   -7.184988|    0.000795|   -0.000044|
|          90|   -7.622140|   -7.210141|    0.000784|   -0.000045|
|          91|   -7.642078|   -7.234775|    0.000774|   -0.000045|
|          92|   -7.661449|   -7.258789|    0.000763|   -0.000045|
|          93|   -7.680176|   -7.282192|    0.000753|   -0.000046|
|          94|   -7.698336|   -7.305198|    0.000743|   -0.000046|
|          95|   -7.715980|   -7.327835|    0.000734|   -0.000047|
|          96|   -7.733020|   -7.349808|    0.000724|   -0.000047|
|          97|   -7.749441|   -7.371009|    0.000714|   -0.000048|
|          98|   -7.765345|   -7.391626|    0.000705|   -0.000048|
|          99|   -7.780810|   -7.411789|    0.000696|   -0.000048|
|         100|   -7.795848|   -7.431461|    0.000686|   -0.000049|
|         101|   -7.810438|   -7.450502|    0.000677|   -0.000049|
|         102|   -7.824557|   -7.468772|    0.000668|   -0.000049|
|         103|   -7.838232|   -7.486258|    0.000659|   -0.000050|
|         104|   -7.851547|   -7.503092|    0.000651|   -0.000050|
|         105|   -7.864588|   -7.519423|    0.000642|   -0.000050|
|         106|   -7.877404|   -7.535333|    0.000634|   -0.000050|
|         107|   -7.889998|   -7.550827|    0.000626|   -0.000050|
|         108|   -7.902358|   -7.565890|    0.000618|   -0.000051|
|         109|   -7.914491|   -7.580530|    0.000610|   -0.000051|
|         110|   -7.926423|   -7.594774|    0.000603|   -0.000051|
|         111|   -7.938183|   -7.608649|    0.000595|   -0.000051|
|         112|   -7.949786|   -7.622165|    0.000587|   -0.000051|
|         113|   -7.961230|   -7.635315|    0.000580|   -0.000052|
|         114|   -7.972507|   -7.648073|    0.000572|   -0.000052|
|         115|   -7.983606|   -7.660397|    0.000565|   -0.000052|
|         116|   -7.994526|   -7.672245|    0.000558|   -0.000052|
|         117|   -8.005271|   -7.683603|    0.000551|   -0.000052|
|         118|   -8.015850|   -7.694500|    0.000544|   -0.000052|
|         119|   -8.026275|   -7.704996|    0.000537|   -0.000052|
|         120|   -8.036560|   -7.715156|    0.000530|   -0.000053|
|         121|   -8.046722|   -7.725040|    0.000523|   -0.000053|
|         122|   -8.056780|   -7.734698|    0.000517|   -0.000053|
|         123|   -8.066749|   -7.744169|    0.000511|   -0.000053|
|         124|   -8.076639|   -7.753480|    0.000505|   -0.000053|
|         125|   -8.086454|   -7.762649|    0.000499|   -0.000053|
|         126|   -8.096193|   -7.771680|    0.000493|   -0.000053|
|         127|   -8.105848|   -7.780565|    0.000487|   -0.000053|
|         128|   -8.115412|   -7.789296|    0.000481|   -0.000053|
|         129|   -8.124880|   -7.797870|    0.000475|   -0.000053|
|         130|   -8.134252|   -7.806295|    0.000470|   -0.000053|
|         131|   -8.143530|   -7.814581|    0.000464|   -0.000053|
|         132|   -8.152712|   -7.822742|    0.000459|   -0.000053|
|         133|   -8.161798|   -7.830791|    0.000454|   -0.000053|
|         134|   -8.170786|   -7.838739|    0.000449|   -0.000053|
|         135|   -8.179674|   -7.846599|    0.000444|   -0.000053|
|         136|   -8.188462|   -7.854384|    0.000439|   -0.000053|
|         137|   -8.197150|   -7.862103|    0.000434|   -0.000053|
|         138|   -8.205738|   -7.869766|    0.000430|   -0.000053|
|         139|   -8.214224|   -7.877380|    0.000425|   -0.000053|
|         140|   -8.222605|   -7.884953|    0.000421|   -0.000053|
|         141|   -8.230879|   -7.892488|    0.000417|   -0.000053|
|         142|   -8.239044|   -7.899989|    0.000412|   -0.000053|
|         143|   -8.247099|   -7.907458|    0.000409|   -0.000053|
|         144|   -8.255044|   -7.914900|    0.000405|   -0.000053|
|         145|   -8.262880|   -7.922319|    0.000401|   -0.000053|
|         146|   -8.270608|   -7.929719|    0.000397|   -0.000053|
|         147|   -8.278227|   -7.937104|    0.000394|   -0.000053|
|         148|   -8.285740|   -7.944477|    0.000391|   -0.000053|
|         149|   -8.293148|   -7.951842|    0.000387|   -0.000053|
|         150|   -8.300454|   -7.959201|    0.000384|   -0.000053|
|         151|   -8.307659|   -7.966557|    0.000381|   -0.000053|
|         152|   -8.314767|   -7.973915|    0.000378|   -0.000053|
|         153|   -8.321780|   -7.981279|    0.000376|   -0.000053|
|         154|   -8.328703|   -7.988653|    0.000373|   -0.000053|
|         155|   -8.335540|   -7.996041|    0.000370|   -0.000053|
|         156|   -8.342294|   -8.003448|    0.000368|   -0.000053|
|         157|   -8.348972|   -8.010876|    0.000366|   -0.000053|
|         158|   -8.355578|   -8.018328|    0.000363|   -0.000053|
|         159|   -8.362118|   -8.025808|    0.000361|   -0.000053|
|         160|   -8.368597|   -8.033317|    0.000359|   -0.000053|
|         161|   -8.375020|   -8.040855|    0.000357|   -0.000053|
|         162|   -8.381392|   -8.048425|    0.000355|   -0.000053|
|         163|   -8.387721|   -8.056027|    0.000354|   -0.000053|
|         164|   -8.394011|   -8.063663|    0.000352|   -0.000053|
|         165|   -8.400268|   -8.071334|    0.000350|   -0.000053|
|         166|   -8.406498|   -8.079042|    0.000349|   -0.000053|
|         167|   -8.412707|   -8.086789|    0.000347|   -0.000053|
|         168|   -8.418900|   -8.094577|    0.000346|   -0.000052|
|         169|   -8.425082|   -8.102408|    0.000345|   -0.000052|
|         170|   -8.431260|   -8.110284|    0.000344|   -0.000052|
|         171|   -8.437437|   -8.118206|    0.000343|   -0.000052|
|         172|   -8.443620|   -8.126177|    0.000342|   -0.000052|
|         173|   -8.449811|   -8.134197|    0.000341|   -0.000052|
|         174|   -8.456015|   -8.142268|    0.000340|   -0.000052|
|         175|   -8.462237|   -8.150390|    0.000339|   -0.000052|
|         176|   -8.468480|   -8.158565|    0.000339|   -0.000052|
|         177|   -8.474747|   -8.166794|    0.000338|   -0.000052|
|         178|   -8.481042|   -8.175077|    0.000337|   -0.000052|
|         179|   -8.487368|   -8.183415|    0.000337|   -0.000052|
|         180|   -8.493728|   -8.191805|    0.000336|   -0.000052|
|         181|   -8.500123|   -8.200251|    0.000336|   -0.000052|
|         182|   -8.506559|   -8.208753|    0.000336|   -0.000052|
|         183|   -8.513035|   -8.217310|    0.000336|   -0.000052|
|         184|   -8.519555|   -8.225923|    0.000335|   -0.000052|
|         185|   -8.526121|   -8.234592|    0.000335|   -0.000052|
|         186|   -8.532736|   -8.243318|    0.000335|   -0.000051|
|         187|   -8.539399|   -8.252101|    0.000335|   -0.000051|
|         188|   -8.546115|   -8.260941|    0.000335|   -0.000051|
|         189|   -8.552883|   -8.269838|    0.000335|   -0.000051|
|         190|   -8.559706|   -8.278793|    0.000335|   -0.000051|
|         191|   -8.566585|   -8.287805|    0.000335|   -0.000051|
|         192|   -8.573520|   -8.296874|    0.000336|   -0.000051|
|         193|   -8.580513|   -8.306000|    0.000336|   -0.000051|
|         194|   -8.587566|   -8.315183|    0.000336|   -0.000051|
|         195|   -8.594679|   -8.324424|    0.000336|   -0.000051|
|         196|   -8.601852|   -8.333721|    0.000337|   -0.000051|
|         197|   -8.609087|   -8.343075|    0.000337|   -0.000051|
|         198|   -8.616384|   -8.352486|    0.000337|   -0.000051|
|         199|   -8.623744|   -8.361952|    0.000338|   -0.000051|
|         200|   -8.631167|   -8.371475|    0.000338|   -0.000051|
|         201|   -8.638654|   -8.381054|    0.000339|   -0.000051|
|         202|   -8.646205|   -8.390688|    0.000339|   -0.000051|
|         203|   -8.653821|   -8.400378|    0.000340|   -0.000051|
|         204|   -8.661502|   -8.410123|    0.000340|   -0.000051|
|         205|   -8.669248|   -8.419924|    0.000341|   -0.000050|
|         206|   -8.677060|   -8.429779|    0.000342|   -0.000050|
|         207|   -8.684938|   -8.439688|    0.000342|   -0.000050|
|         208|   -8.692882|   -8.449652|    0.000343|   -0.000050|
|         209|   -8.700892|   -8.459670|    0.000344|   -0.000050|
|         210|   -8.708968|   -8.469741|    0.000344|   -0.000050|
|         211|   -8.717111|   -8.479867|    0.000345|   -0.000050|
|         212|   -8.725320|   -8.490045|    0.000346|   -0.000050|
|         213|   -8.733596|   -8.500277|    0.000346|   -0.000050|
|         214|   -8.741939|   -8.510562|    0.000347|   -0.000050|
|         215|   -8.750349|   -8.520900|    0.000348|   -0.000050|
|         216|   -8.758825|   -8.531291|    0.000349|   -0.000050|
|         217|   -8.767367|   -8.541734|    0.000350|   -0.000050|
|         218|   -8.775977|   -8.552229|    0.000350|   -0.000050|
|         219|   -8.784653|   -8.562776|    0.000351|   -0.000050|
|         220|   -8.793396|   -8.573375|    0.000352|   -0.000050|
|         221|   -8.802205|   -8.584025|    0.000353|   -0.000050|
|         222|   -8.811081|   -8.594727|    0.000354|   -0.000050|
|         223|   -8.820023|   -8.605479|    0.000355|   -0.000050|
|         224|   -8.829032|   -8.616282|    0.000355|   -0.000050|
|         225|   -8.838106|   -8.627136|    0.000356|   -0.000050|
|         226|   -8.847247|   -8.638040|    0.000357|   -0.000050|
|         227|   -8.856454|   -8.648993|    0.000358|   -0.000050|
|         228|   -8.865726|   -8.659997|    0.000359|   -0.000050|
|         229|   -8.875064|   -8.671050|    0.000360|   -0.000050|
|         230|   -8.884468|   -8.682152|    0.000361|   -0.000050|
|         231|   -8.893937|   -8.693303|    0.000361|   -0.000049|
|         232|   -8.903471|   -8.704504|    0.000362|   -0.000049|
|         233|   -8.913071|   -8.715753|    0.000363|   -0.000049|
|         234|   -8.922735|   -8.727050|    0.000364|   -0.000049|
|         235|   -8.932464|   -8.738396|    0.000365|   -0.000049|
|         236|   -8.942258|   -8.749790|    0.000366|   -0.000049|
|         237|   -8.952116|   -8.761232|    0.000367|   -0.000049|
|         238|   -8.962039|   -8.772721|    0.000368|   -0.000049|
|         239|   -8.972026|   -8.784258|    0.000368|   -0.000049|
|         240|   -8.982077|   -8.795841|    0.000369|   -0.000049|
|         241|   -8.992192|   -8.807472|    0.000370|   -0.000049|
|         242|   -9.002370|   -8.819149|    0.000371|   -0.000049|
|         243|   -9.012612|   -8.830873|    0.000372|   -0.000049|
|         244|   -9.022918|   -8.842642|    0.000373|   -0.000049|
|         245|   -9.033286|   -8.854457|    0.000374|   -0.000049|
|         246|   -9.043717|   -8.866318|    0.000374|   -0.000049|
|         247|   -9.054212|   -8.878224|    0.000375|   -0.000049|
|         248|   -9.064769|   -8.890175|    0.000376|   -0.000049|
|         249|   -9.075388|   -8.902170|    0.000377|   -0.000049|
|         250|   -9.086070|   -8.914210|    0.000378|   -0.000049|
+-----------------------------------------------------------------------+
|        File Writing Summary       |              Filename             |
+-----------------------------------------------------------------------+
|SU2 restart                        |restart_flow.dat                   |
|Paraview                           |flow.vtu                           |
|Paraview surface                   |surface_flow.vtu                   |
|CSV file                           |surface_flow.csv                   |
+-----------------------------------------------------------------------+
+----------------------------------------------------------------+
|  Inner_Iter|    rms[Rho]|   rms[RhoE]|          CL|          CD|
+----------------------------------------------------------------+
|         251|   -9.096814|   -8.926294|    0.000379|   -0.000049|
|         252|   -9.107619|   -8.938422|    0.000379|   -0.000049|
|         253|   -9.118487|   -8.950593|    0.000380|   -0.000049|
|         254|   -9.129416|   -8.962808|    0.000381|   -0.000049|
|         255|   -9.140407|   -8.975065|    0.000382|   -0.000049|
|         256|   -9.151459|   -8.987365|    0.000383|   -0.000049|
|         257|   -9.162572|   -8.999707|    0.000383|   -0.000049|
|         258|   -9.173746|   -9.012091|    0.000384|   -0.000049|
|         259|   -9.184980|   -9.024517|    0.000385|   -0.000049|
|         260|   -9.196276|   -9.036984|    0.000386|   -0.000049|
|         261|   -9.207631|   -9.049492|    0.000386|   -0.000049|
|         262|   -9.219047|   -9.062040|    0.000387|   -0.000049|
|         263|   -9.230523|   -9.074629|    0.000388|   -0.000049|
|         264|   -9.242059|   -9.087257|    0.000388|   -0.000049|
|         265|   -9.253655|   -9.099925|    0.000389|   -0.000049|
|         266|   -9.265310|   -9.112631|    0.000390|   -0.000049|
|         267|   -9.277025|   -9.125377|    0.000391|   -0.000049|
|         268|   -9.288798|   -9.138160|    0.000391|   -0.000049|
|         269|   -9.300631|   -9.150981|    0.000392|   -0.000049|
|         270|   -9.312523|   -9.163840|    0.000393|   -0.000049|
|         271|   -9.324474|   -9.176735|    0.000393|   -0.000049|
|         272|   -9.336483|   -9.189667|    0.000394|   -0.000049|
|         273|   -9.348550|   -9.202634|    0.000394|   -0.000049|
|         274|   -9.360675|   -9.215637|    0.000395|   -0.000049|
|         275|   -9.372859|   -9.228675|    0.000396|   -0.000049|
|         276|   -9.385100|   -9.241748|    0.000396|   -0.000049|
|         277|   -9.397398|   -9.254854|    0.000397|   -0.000049|
|         278|   -9.409754|   -9.267995|    0.000398|   -0.000049|
|         279|   -9.422168|   -9.281168|    0.000398|   -0.000049|
|         280|   -9.434638|   -9.294374|    0.000399|   -0.000049|
|         281|   -9.447165|   -9.307611|    0.000399|   -0.000049|
|         282|   -9.459749|   -9.320881|    0.000400|   -0.000049|
|         283|   -9.472389|   -9.334181|    0.000400|   -0.000049|
|         284|   -9.485085|   -9.347511|    0.000401|   -0.000049|
|         285|   -9.497837|   -9.360871|    0.000401|   -0.000049|
|         286|   -9.510645|   -9.374260|    0.000402|   -0.000049|
|         287|   -9.523508|   -9.387678|    0.000402|   -0.000049|
|         288|   -9.536427|   -9.401123|    0.000403|   -0.000049|
|         289|   -9.549401|   -9.414596|    0.000403|   -0.000049|
|         290|   -9.562429|   -9.428095|    0.000404|   -0.000049|
|         291|   -9.575512|   -9.441620|    0.000404|   -0.000049|
|         292|   -9.588650|   -9.455171|    0.000405|   -0.000049|
|         293|   -9.601841|   -9.468746|    0.000405|   -0.000049|
|         294|   -9.615086|   -9.482346|    0.000406|   -0.000049|
|         295|   -9.628385|   -9.495968|    0.000406|   -0.000049|
|         296|   -9.641737|   -9.509614|    0.000407|   -0.000049|
|         297|   -9.655141|   -9.523281|    0.000407|   -0.000049|
|         298|   -9.668599|   -9.536970|    0.000407|   -0.000049|
|         299|   -9.682109|   -9.550679|    0.000408|   -0.000049|
|         300|   -9.695671|   -9.564408|    0.000408|   -0.000048|
|         301|   -9.709285|   -9.578157|    0.000409|   -0.000048|
|         302|   -9.722950|   -9.591924|    0.000409|   -0.000048|
|         303|   -9.736667|   -9.605709|    0.000409|   -0.000048|
|         304|   -9.750434|   -9.619511|    0.000410|   -0.000048|
|         305|   -9.764252|   -9.633329|    0.000410|   -0.000048|
|         306|   -9.778121|   -9.647164|    0.000410|   -0.000048|
|         307|   -9.792039|   -9.661013|    0.000411|   -0.000048|
|         308|   -9.806007|   -9.674876|    0.000411|   -0.000048|
|         309|   -9.820024|   -9.688753|    0.000411|   -0.000048|
|         310|   -9.834090|   -9.702642|    0.000412|   -0.000048|
|         311|   -9.848205|   -9.716544|    0.000412|   -0.000048|
|         312|   -9.862368|   -9.730457|    0.000412|   -0.000048|
|         313|   -9.876579|   -9.744381|    0.000413|   -0.000048|
|         314|   -9.890838|   -9.758314|    0.000413|   -0.000048|
|         315|   -9.905144|   -9.772257|    0.000413|   -0.000048|
|         316|   -9.919497|   -9.786209|    0.000414|   -0.000048|
|         317|   -9.933896|   -9.800168|    0.000414|   -0.000048|
|         318|   -9.948341|   -9.814135|    0.000414|   -0.000048|
|         319|   -9.962832|   -9.828108|    0.000414|   -0.000048|
|         320|   -9.977369|   -9.842087|    0.000415|   -0.000048|
|         321|   -9.991951|   -9.856072|    0.000415|   -0.000048|
|         322|  -10.006577|   -9.870061|    0.000415|   -0.000048|
|         323|  -10.021248|   -9.884054|    0.000415|   -0.000048|
|         324|  -10.035962|   -9.898050|    0.000416|   -0.000048|
|         325|  -10.050720|   -9.912049|    0.000416|   -0.000048|
|         326|  -10.065522|   -9.926051|    0.000416|   -0.000048|
|         327|  -10.080366|   -9.940053|    0.000416|   -0.000048|
|         328|  -10.095252|   -9.954057|    0.000416|   -0.000048|
|         329|  -10.110181|   -9.968062|    0.000417|   -0.000048|
|         330|  -10.125151|   -9.982066|    0.000417|   -0.000048|
|         331|  -10.140162|   -9.996070|    0.000417|   -0.000048|
|         332|  -10.155214|  -10.010073|    0.000417|   -0.000048|
|         333|  -10.170307|  -10.024074|    0.000417|   -0.000048|
|         334|  -10.185439|  -10.038073|    0.000418|   -0.000048|
|         335|  -10.200612|  -10.052070|    0.000418|   -0.000048|
|         336|  -10.215823|  -10.066064|    0.000418|   -0.000048|
|         337|  -10.231073|  -10.080054|    0.000418|   -0.000048|
|         338|  -10.246362|  -10.094041|    0.000418|   -0.000048|
|         339|  -10.261689|  -10.108024|    0.000419|   -0.000048|
|         340|  -10.277053|  -10.122002|    0.000419|   -0.000048|
|         341|  -10.292455|  -10.135976|    0.000419|   -0.000048|
|         342|  -10.307894|  -10.149944|    0.000419|   -0.000048|
|         343|  -10.323368|  -10.163907|    0.000419|   -0.000048|
|         344|  -10.338879|  -10.177865|    0.000419|   -0.000048|
|         345|  -10.354426|  -10.191816|    0.000419|   -0.000048|
|         346|  -10.370007|  -10.205762|    0.000420|   -0.000048|
|         347|  -10.385624|  -10.219701|    0.000420|   -0.000048|
|         348|  -10.401275|  -10.233634|    0.000420|   -0.000048|
|         349|  -10.416959|  -10.247560|    0.000420|   -0.000048|
|         350|  -10.432677|  -10.261478|    0.000420|   -0.000048|
|         351|  -10.448428|  -10.275390|    0.000420|   -0.000048|
|         352|  -10.464212|  -10.289295|    0.000420|   -0.000048|
|         353|  -10.480028|  -10.303192|    0.000420|   -0.000048|
|         354|  -10.495876|  -10.317083|    0.000421|   -0.000048|
|         355|  -10.511755|  -10.330965|    0.000421|   -0.000048|
|         356|  -10.527665|  -10.344840|    0.000421|   -0.000048|
|         357|  -10.543605|  -10.358708|    0.000421|   -0.000048|
|         358|  -10.559576|  -10.372568|    0.000421|   -0.000048|
|         359|  -10.575576|  -10.386420|    0.000421|   -0.000048|
|         360|  -10.591605|  -10.400265|    0.000421|   -0.000048|
|         361|  -10.607663|  -10.414102|    0.000421|   -0.000048|
|         362|  -10.623749|  -10.427932|    0.000421|   -0.000048|
|         363|  -10.639863|  -10.441754|    0.000421|   -0.000048|
|         364|  -10.656004|  -10.455568|    0.000421|   -0.000048|
|         365|  -10.672172|  -10.469376|    0.000422|   -0.000048|
|         366|  -10.688367|  -10.483175|    0.000422|   -0.000048|
|         367|  -10.704587|  -10.496968|    0.000422|   -0.000048|
|         368|  -10.720833|  -10.510753|    0.000422|   -0.000048|
|         369|  -10.737104|  -10.524531|    0.000422|   -0.000048|
|         370|  -10.753399|  -10.538301|    0.000422|   -0.000048|
|         371|  -10.769719|  -10.552065|    0.000422|   -0.000048|
|         372|  -10.786061|  -10.565822|    0.000422|   -0.000048|
|         373|  -10.802427|  -10.579572|    0.000422|   -0.000048|
|         374|  -10.818816|  -10.593315|    0.000422|   -0.000048|
|         375|  -10.835226|  -10.607052|    0.000422|   -0.000048|
|         376|  -10.851658|  -10.620782|    0.000422|   -0.000048|
|         377|  -10.868111|  -10.634505|    0.000422|   -0.000048|
|         378|  -10.884584|  -10.648221|    0.000422|   -0.000048|
|         379|  -10.901077|  -10.661932|    0.000422|   -0.000048|
|         380|  -10.917590|  -10.675636|    0.000423|   -0.000048|
|         381|  -10.934121|  -10.689334|    0.000423|   -0.000048|
|         382|  -10.950671|  -10.703025|    0.000423|   -0.000048|
|         383|  -10.967238|  -10.716711|    0.000423|   -0.000048|
|         384|  -10.983823|  -10.730390|    0.000423|   -0.000048|
|         385|  -11.000424|  -10.744063|    0.000423|   -0.000048|
|         386|  -11.017041|  -10.757729|    0.000423|   -0.000048|
|         387|  -11.033673|  -10.771391|    0.000423|   -0.000048|
|         388|  -11.050320|  -10.785045|    0.000423|   -0.000048|
|         389|  -11.066981|  -10.798693|    0.000423|   -0.000048|
|         390|  -11.083655|  -10.812335|    0.000423|   -0.000048|
|         391|  -11.100343|  -10.825971|    0.000423|   -0.000048|
|         392|  -11.117041|  -10.839599|    0.000423|   -0.000048|
|         393|  -11.133752|  -10.853223|    0.000423|   -0.000048|
|         394|  -11.150474|  -10.866839|    0.000423|   -0.000048|
|         395|  -11.167205|  -10.880447|    0.000423|   -0.000048|
|         396|  -11.183945|  -10.894049|    0.000423|   -0.000048|
|         397|  -11.200694|  -10.907644|    0.000423|   -0.000048|
|         398|  -11.217451|  -10.921232|    0.000423|   -0.000048|
|         399|  -11.234215|  -10.934811|    0.000423|   -0.000048|
|         400|  -11.250984|  -10.948383|    0.000423|   -0.000048|
|         401|  -11.267759|  -10.961946|    0.000423|   -0.000048|
|         402|  -11.284538|  -10.975500|    0.000423|   -0.000048|
|         403|  -11.301321|  -10.989046|    0.000423|   -0.000048|
|         404|  -11.318106|  -11.002582|    0.000423|   -0.000048|
|         405|  -11.334893|  -11.016110|    0.000423|   -0.000048|
|         406|  -11.351681|  -11.029627|    0.000423|   -0.000048|
|         407|  -11.368468|  -11.043134|    0.000423|   -0.000048|
|         408|  -11.385254|  -11.056628|    0.000424|   -0.000048|
|         409|  -11.402038|  -11.070113|    0.000424|   -0.000048|
|         410|  -11.418817|  -11.083583|    0.000424|   -0.000048|
|         411|  -11.435593|  -11.097042|    0.000424|   -0.000048|
|         412|  -11.452364|  -11.110490|    0.000424|   -0.000048|
|         413|  -11.469126|  -11.123920|    0.000424|   -0.000048|
|         414|  -11.485881|  -11.137337|    0.000424|   -0.000048|
|         415|  -11.502626|  -11.150737|    0.000424|   -0.000048|
|         416|  -11.519361|  -11.164125|    0.000424|   -0.000048|
|         417|  -11.536084|  -11.177495|    0.000424|   -0.000048|
|         418|  -11.552793|  -11.190845|    0.000424|   -0.000048|
|         419|  -11.569487|  -11.204179|    0.000424|   -0.000048|
|         420|  -11.586165|  -11.217493|    0.000424|   -0.000048|
|         421|  -11.602825|  -11.230788|    0.000424|   -0.000048|
|         422|  -11.619467|  -11.244061|    0.000424|   -0.000048|
|         423|  -11.636086|  -11.257312|    0.000424|   -0.000048|
|         424|  -11.652683|  -11.270539|    0.000424|   -0.000048|
|         425|  -11.669258|  -11.283748|    0.000424|   -0.000048|
|         426|  -11.685804|  -11.296925|    0.000424|   -0.000048|
|         427|  -11.702324|  -11.310080|    0.000424|   -0.000048|
|         428|  -11.718815|  -11.323210|    0.000424|   -0.000048|
|         429|  -11.735271|  -11.336306|    0.000424|   -0.000048|
|         430|  -11.751696|  -11.349377|    0.000424|   -0.000048|
|         431|  -11.768087|  -11.362419|    0.000424|   -0.000048|
|         432|  -11.784440|  -11.375430|    0.000424|   -0.000048|
|         433|  -11.800753|  -11.388406|    0.000424|   -0.000048|
|         434|  -11.817025|  -11.401350|    0.000424|   -0.000048|
|         435|  -11.833253|  -11.414261|    0.000424|   -0.000048|
|         436|  -11.849434|  -11.427132|    0.000424|   -0.000048|
|         437|  -11.865569|  -11.439971|    0.000424|   -0.000048|
|         438|  -11.881650|  -11.452764|    0.000424|   -0.000048|
|         439|  -11.897686|  -11.465530|    0.000424|   -0.000048|
|         440|  -11.913662|  -11.478251|    0.000424|   -0.000048|
|         441|  -11.929579|  -11.490922|    0.000424|   -0.000048|
|         442|  -11.945439|  -11.503558|    0.000424|   -0.000048|
|         443|  -11.961235|  -11.516146|    0.000424|   -0.000048|
|         444|  -11.976969|  -11.528691|    0.000424|   -0.000048|
|         445|  -11.992634|  -11.541188|    0.000424|   -0.000048|
|         446|  -12.008232|  -11.553643|    0.000424|   -0.000048|
|         447|  -12.023760|  -11.566048|    0.000424|   -0.000048|
|         448|  -12.039210|  -11.578401|    0.000424|   -0.000048|
|         449|  -12.054587|  -11.590705|    0.000424|   -0.000048|
|         450|  -12.069882|  -11.602960|    0.000424|   -0.000048|
|         451|  -12.085095|  -11.615156|    0.000424|   -0.000048|
|         452|  -12.100226|  -11.627301|    0.000424|   -0.000048|
|         453|  -12.115269|  -11.639393|    0.000424|   -0.000048|
|         454|  -12.130228|  -11.651433|    0.000424|   -0.000048|
|         455|  -12.145090|  -11.663408|    0.000424|   -0.000048|
|         456|  -12.159864|  -11.675333|    0.000424|   -0.000048|
|         457|  -12.174545|  -11.687205|    0.000424|   -0.000048|
|         458|  -12.189123|  -11.699008|    0.000424|   -0.000048|
|         459|  -12.203606|  -11.710757|    0.000424|   -0.000048|
|         460|  -12.217988|  -11.722453|    0.000424|   -0.000048|
|         461|  -12.232266|  -11.734078|    0.000424|   -0.000048|
|         462|  -12.246442|  -11.745651|    0.000424|   -0.000048|
|         463|  -12.260507|  -11.757154|    0.000424|   -0.000048|
|         464|  -12.274473|  -11.768607|    0.000424|   -0.000048|
|         465|  -12.288325|  -11.779992|    0.000424|   -0.000048|
|         466|  -12.302064|  -11.791313|    0.000424|   -0.000048|
|         467|  -12.315701|  -11.802583|    0.000424|   -0.000048|
|         468|  -12.329222|  -11.813783|    0.000424|   -0.000048|
|         469|  -12.342627|  -11.824923|    0.000424|   -0.000048|
|         470|  -12.355918|  -11.836003|    0.000424|   -0.000048|
|         471|  -12.369099|  -11.847016|    0.000424|   -0.000048|
|         472|  -12.382168|  -11.857981|    0.000424|   -0.000048|
|         473|  -12.395113|  -11.868867|    0.000424|   -0.000048|
|         474|  -12.407940|  -11.879689|    0.000424|   -0.000048|
|         475|  -12.420671|  -11.890475|    0.000424|   -0.000048|
|         476|  -12.433289|  -11.901194|    0.000424|   -0.000048|
|         477|  -12.445769|  -11.911841|    0.000424|   -0.000048|
|         478|  -12.458143|  -11.922430|    0.000424|   -0.000048|
|         479|  -12.470413|  -11.932968|    0.000424|   -0.000048|
|         480|  -12.482562|  -11.943445|    0.000424|   -0.000048|
|         481|  -12.494605|  -11.953866|    0.000424|   -0.000048|
|         482|  -12.506535|  -11.964233|    0.000424|   -0.000048|
|         483|  -12.518363|  -11.974547|    0.000424|   -0.000048|
|         484|  -12.530078|  -11.984802|    0.000424|   -0.000048|
|         485|  -12.541682|  -11.994990|    0.000424|   -0.000048|
|         486|  -12.553189|  -12.005144|    0.000424|   -0.000048|
|         487|  -12.564590|  -12.015240|    0.000424|   -0.000048|
|         488|  -12.575890|  -12.025286|    0.000424|   -0.000048|
|         489|  -12.587093|  -12.035286|    0.000424|   -0.000048|
|         490|  -12.598198|  -12.045234|    0.000424|   -0.000048|
|         491|  -12.609201|  -12.055125|    0.000424|   -0.000048|
|         492|  -12.620132|  -12.064994|    0.000424|   -0.000048|
|         493|  -12.630962|  -12.074811|    0.000424|   -0.000048|
|         494|  -12.641680|  -12.084557|    0.000424|   -0.000048|
|         495|  -12.652315|  -12.094267|    0.000424|   -0.000048|
|         496|  -12.662907|  -12.103973|    0.000424|   -0.000048|
|         497|  -12.673379|  -12.113604|    0.000424|   -0.000048|
|         498|  -12.683789|  -12.123208|    0.000424|   -0.000048|
|         499|  -12.694118|  -12.132772|    0.000424|   -0.000048|
|         500|  -12.704354|  -12.142286|    0.000424|   -0.000048|
+-----------------------------------------------------------------------+
|        File Writing Summary       |              Filename             |
+-----------------------------------------------------------------------+
|SU2 restart                        |restart_flow.dat                   |
|Paraview                           |flow.vtu                           |
|Paraview surface                   |surface_flow.vtu                   |
|CSV file                           |surface_flow.csv                   |
+-----------------------------------------------------------------------+
+----------------------------------------------------------------+
|  Inner_Iter|    rms[Rho]|   rms[RhoE]|          CL|          CD|
+----------------------------------------------------------------+
|         501|  -12.714520|  -12.151763|    0.000424|   -0.000048|
|         502|  -12.724631|  -12.161229|    0.000424|   -0.000048|
|         503|  -12.734698|  -12.170670|    0.000424|   -0.000048|
|         504|  -12.744655|  -12.180050|    0.000424|   -0.000048|
|         505|  -12.754550|  -12.189397|    0.000424|   -0.000048|
|         506|  -12.764402|  -12.198725|    0.000424|   -0.000048|
|         507|  -12.774200|  -12.208038|    0.000424|   -0.000048|
|         508|  -12.783913|  -12.217291|    0.000424|   -0.000048|
|         509|  -12.793617|  -12.226555|    0.000424|   -0.000048|
|         510|  -12.803241|  -12.235766|    0.000424|   -0.000048|
|         511|  -12.812822|  -12.244967|    0.000424|   -0.000048|
|         512|  -12.822370|  -12.254161|    0.000424|   -0.000048|
|         513|  -12.831822|  -12.263280|    0.000424|   -0.000048|
|         514|  -12.841277|  -12.272433|    0.000424|   -0.000048|
|         515|  -12.850654|  -12.281525|    0.000424|   -0.000048|
|         516|  -12.860005|  -12.290606|    0.000424|   -0.000048|
|         517|  -12.869352|  -12.299697|    0.000424|   -0.000048|
|         518|  -12.878621|  -12.308750|    0.000424|   -0.000048|
|         519|  -12.887885|  -12.317796|    0.000424|   -0.000048|
|         520|  -12.897102|  -12.326832|    0.000424|   -0.000048|
|         521|  -12.906299|  -12.335852|    0.000424|   -0.000048|
|         522|  -12.915466|  -12.344856|    0.000424|   -0.000048|
|         523|  -12.924600|  -12.353834|    0.000424|   -0.000048|
|         524|  -12.933706|  -12.362808|    0.000424|   -0.000048|
|         525|  -12.942805|  -12.371798|    0.000424|   -0.000048|
|         526|  -12.951827|  -12.380719|    0.000424|   -0.000048|
|         527|  -12.960900|  -12.389692|    0.000424|   -0.000048|
|         528|  -12.969883|  -12.398599|    0.000424|   -0.000048|
|         529|  -12.978887|  -12.407542|    0.000424|   -0.000048|
|         530|  -12.987879|  -12.416461|    0.000424|   -0.000048|
|         531|  -12.996881|  -12.425414|    0.000424|   -0.000048|
|         532|  -13.005824|  -12.434315|    0.000424|   -0.000048|

----------------------------- Solver Exit -------------------------------
All convergence criteria satisfied.
+-----------------------------------------------------------------------+
|      Convergence Field     |     Value    |   Criterion  |  Converged |
+-----------------------------------------------------------------------+
|                    rms[Rho]|      -13.0058|         < -13|         Yes|
+-----------------------------------------------------------------------+
-------------------------------------------------------------------------
+-----------------------------------------------------------------------+
|        File Writing Summary       |              Filename             |
+-----------------------------------------------------------------------+
|SU2 restart                        |restart_flow.dat                   |
|Paraview                           |flow.vtu                           |
|Paraview surface                   |surface_flow.vtu                   |
|CSV file                           |surface_flow.csv                   |
+-----------------------------------------------------------------------+

------------------------- Solver Postprocessing -------------------------
Deleted CNumerics container.
Deleted CIntegration container.
Deleted CSolver container.
Deleted CIteration container.
Deleted CInterpolator container.
Deleted CInterface container.
Deleted CGeometry container.
Deleted CFreeFormDefBox class.
Deleted CSurfaceMovement class.
Deleted CVolumetricMovement class.
Deleted CConfig container.
Deleted nInst container.
Deleted COutput class.
-------------------------------------------------------------------------

------------------------- Exit Success (SU2_CFD) ------------------------

