
-------------------------------------------------------------------------
|    ___ _   _ ___                                                      |
|   / __| | | |_  )   Release 7.0.5 "Blackbird"                         |
|   \__ \ |_| |/ /                                                      |
|   |___/\___//___|   Suite (Computational Fluid Dynamics Code)         |
|                                                                       |
-------------------------------------------------------------------------
| SU2 Project Website: https://su2code.github.io                        |
|                                                                       |
| The SU2 Project is maintained by the SU2 Foundation                   |
| (http://su2foundation.org)                                            |
-------------------------------------------------------------------------
| Copyright 2012-2020, SU2 Contributors                                 |
|                                                                       |
| SU2 is free software; you can redistribute it and/or                  |
| modify it under the terms of the GNU Lesser General Public            |
| License as published by the Free Software Foundation; either          |
| version 2.1 of the License, or (at your option) any later version.    |
|                                                                       |
| SU2 is distributed in the hope that it will be useful,                |
| but WITHOUT ANY WARRANTY; without even the implied warranty of        |
| MERCHANTABILITY or FITNESS FOR A PARTICULAR PURPOSE. See the GNU      |
| Lesser General Public License for more details.                       |
|                                                                       |
| You should have received a copy of the GNU Lesser General Public      |
| License along with SU2. If not, see <http://www.gnu.org/licenses/>.   |
-------------------------------------------------------------------------

Parsing config file for zone 0

----------------- Physical Case Definition ( Zone 0 ) -------------------
Compressible Euler equations.
Mach number: 0.1.
Angle of attack (AoA): 0 deg, and angle of sideslip (AoS): 0 deg.
No restart solution, use the values at infinity (freestream).
Non-Dimensional simulation (P=1.0, Rho=1.0, T=1.0 at the farfield).
The reference area is 1 m^2.
The semi-span will be computed using the max y(3D) value.
The reference length is 1 m.
Reference origin for moment evaluation is (0.25, 0, 0).
Surface(s) where the force coefficients are evaluated: airfoil.

Surface(s) plotted in the output file: airfoil.
Surface(s) affected by the design variables: airfoil.
Input mesh file name: mesh_NACA0012_inv.su2

--------------- Space Numerical Integration ( Zone 0 ) ------------------
Jameson-Schmidt-Turkel scheme (2nd order in space) for the flow inviscid terms.
JST viscous coefficients (2nd & 4th): 0.5, 0.02.
The method includes a grid stretching correction (p = 0.3).
Gradient for upwind reconstruction: Green-Gauss.
Gradient for viscous and source terms: Green-Gauss.

--------------- Time Numerical Integration  ( Zone 0 ) ------------------
Local time stepping (steady state simulation).
Euler implicit method for the flow equations.
FGMRES is used for solving the linear system.
Using a LU-SGS preconditioning.
Convergence criteria of the linear solver: 0.0001.
Max number of linear iterations: 2.
V Multigrid Cycle, with 2 multigrid levels.
Damping factor for the residual restriction: 1.
Damping factor for the correction prolongation: 1.
No CFL adaptation.
+-------------------------------------------+
|  MG Level| Presmooth|PostSmooth|CorrectSmo|
+-------------------------------------------+
|         0|         1|         0|         0|
|         1|         2|         0|         0|
|         2|         3|         0|         0|
+-------------------------------------------+
Courant-Friedrichs-Lewy number:       10

------------------ Convergence Criteria  ( Zone 0 ) ---------------------
Maximum number of solver subiterations: 1000.
Begin convergence monitoring at iteration 10.
Residual minimum value: 1e-13.
Cauchy series min. value: 1e-06.
Number of Cauchy elements: 100.
Begin windowed time average at iteration 0.

-------------------- Output Information ( Zone 0 ) ----------------------
Writing solution files every 250 iterations.
Writing the convergence history file every 1 inner iterations.
Writing the screen convergence history every 1 inner iterations.
The tabular file format is CSV (.csv).
Convergence history file name: history_direct.
Forces breakdown file name: forces_breakdown.dat.
Surface file name: surface_flow.
Volume file name: flow.
Restart file name: restart_flow.dat.

------------- Config File Boundary Information ( Zone 0 ) ---------------
+-----------------------------------------------------------------------+
|                        Marker Type|                        Marker Name|
+-----------------------------------------------------------------------+
|                         Euler wall|                            airfoil|
+-----------------------------------------------------------------------+
|                          Far-field|                           farfield|
+-----------------------------------------------------------------------+

-------------------- Output Preprocessing ( Zone 0 ) --------------------
Screen output fields: INNER_ITER, RMS_DENSITY, RMS_ENERGY, LIFT, DRAG
History output group(s): ITER, RMS_RES, AERO_COEFF
Convergence field(s): RMS_DENSITY
Warning: No (valid) fields chosen for time convergence monitoring. Time convergence monitoring inactive.
Volume output fields: COORDINATES, SOLUTION, PRIMITIVE

------------------- Geometry Preprocessing ( Zone 0 ) -------------------
Two dimensional problem.
5233 grid points.
10216 volume elements.
2 surface markers.
200 boundary elements in index 0 (Marker = airfoil).
50 boundary elements in index 1 (Marker = farfield).
10216 triangles.
Setting point connectivity.
Renumbering points (Reverse Cuthill McKee Ordering).
Recomputing point connectivity.
Setting element connectivity.
Checking the numerical grid orientation.
Identifying edges and vertices.
Computing centers of gravity.
Setting the control volume structure.
Area of the computational grid: 1253.25.
Searching for the closest normal neighbors to the surfaces.
Storing a mapping from global to local point index.
Compute the surface curvature.
Max K: 7835.1. Mean K: 34.8252. Standard deviation K: 494.448.
Checking for periodicity.
Computing mesh quality statistics for the dual control volumes.
+--------------------------------------------------------------+
|           Mesh Quality Metric|        Minimum|        Maximum|
+--------------------------------------------------------------+
|    Orthogonality Angle (deg.)|        62.6714|        89.7089|
|     CV Face Area Aspect Ratio|        1.00001|        7.18337|
|           CV Sub-Volume Ratio|        1.00285|        6.47826|
+--------------------------------------------------------------+
Setting the multigrid structure.
+-------------------------------------------+
|  MG Level|       CVs|Aggl. Rate|       CFL|
+-------------------------------------------+
|         0|      5233|    1/1.00|        10|
|         1|      1533|    1/3.41|   8.11871|
|         2|       443|    1/3.46|    6.5465|
+-------------------------------------------+
Finding max control volume width.
Wetted area = 2.03916 m.
Area projection in the x-plane = 0.119981 m, y-plane = 0.999845 m.
Max. coordinate in the x-direction = 1 m, y-direction = 0.0600055 m.
Min. coordinate in the x-direction = 0 m, y-direction = -0.0600055 m.
Checking if Euler & Symmetry markers are straight/plane:
Boundary marker airfoil is NOT a single straight.
Computing wall distances.

-------------------- Solver Preprocessing ( Zone 0 ) --------------------
Inviscid flow: Computing density based on free-stream
temperature and pressure using the ideal gas law.
Force coefficients computed using free-stream values.

-- Models:
+------------------------------------------------------------------------------+
|          Viscosity Model|        Conductivity Model|              Fluid Model|
+------------------------------------------------------------------------------+
|                        -|                         -|             STANDARD_AIR|
+------------------------------------------------------------------------------+
-- Fluid properties:
+------------------------------------------------------------------------------+
|                  Name|    Dim. value|    Ref. value|      Unit|Non-dim. value|
+------------------------------------------------------------------------------+
|          Gas Constant|       287.058|       287.058|  N.m/kg.K|             1|
|      Spec. Heat Ratio|             -|             -|         -|           1.4|
+------------------------------------------------------------------------------+
-- Initial and free-stream conditions:
+------------------------------------------------------------------------------+
|                  Name|    Dim. value|    Ref. value|      Unit|Non-dim. value|
+------------------------------------------------------------------------------+
|       Static Pressure|        101325|        101325|        Pa|             1|
|               Density|       1.22498|       1.22498|    kg/m^3|             1|
|           Temperature|        288.15|        288.15|         K|             1|
|          Total Energy|        207368|       82715.8|   m^2/s^2|         2.507|
|            Velocity-X|       34.0297|       287.603|       m/s|      0.118322|
|            Velocity-Y|             0|       287.603|       m/s|             0|
|    Velocity Magnitude|       34.0297|       287.603|       m/s|      0.118322|
+------------------------------------------------------------------------------+
|           Mach Number|             -|             -|         -|           0.1|
+------------------------------------------------------------------------------+
Initialize Jacobian structure (Euler). MG level: 0.
Initialize Jacobian structure (Euler). MG level: 1.
Initialize Jacobian structure (Euler). MG level: 2.

------------------- Numerics Preprocessing ( Zone 0 ) -------------------

----------------- Integration Preprocessing ( Zone 0 ) ------------------

------------------- Iteration Preprocessing ( Zone 0 ) ------------------
Euler/Navier-Stokes/RANS fluid iteration.

------------------------------ Begin Solver -----------------------------

Simulation Run using the Single-zone Driver
+----------------------------------------------------------------+
|  Inner_Iter|    rms[Rho]|   rms[RhoE]|          CL|          CD|
+----------------------------------------------------------------+
|           0|   -4.494976|   -3.950040|   -0.082482|    1.366564|
|           1|   -4.620754|   -4.069848|    0.159588|   -0.138791|
|           2|   -4.732366|   -4.183698|    0.039311|   -0.248773|
|           3|   -4.707461|   -4.152820|   -0.079789|    0.062373|
|           4|   -4.653925|   -4.106872|   -0.059253|    0.183379|
|           5|   -4.794155|   -4.242567|    0.055342|    0.029498|
|           6|   -4.756713|   -4.209219|    0.053247|   -0.087819|
|           7|   -4.968257|   -4.417367|   -0.040473|   -0.014824|
|           8|   -4.950752|   -4.403272|   -0.040793|    0.080235|
|           9|   -5.165287|   -4.615453|    0.029145|    0.030233|
|          10|   -5.209738|   -4.661125|    0.034222|   -0.050123|
|          11|   -5.316310|   -4.767367|   -0.013828|   -0.017125|
|          12|   -5.439850|   -4.892050|   -0.022467|    0.041545|
|          13|   -5.465070|   -4.915096|    0.007725|    0.016674|
|          14|   -5.618801|   -5.071749|    0.018799|   -0.027758|
|          15|   -5.649014|   -5.097575|    0.000713|   -0.010269|
|          16|   -5.731136|   -5.186018|   -0.010778|    0.022786|
|          17|   -5.864228|   -5.312023|   -0.001104|    0.010292|
|          18|   -5.872972|   -5.327478|    0.008147|   -0.014335|
|          19|   -6.040249|   -5.488943|    0.002833|   -0.006447|
|          20|   -5.981910|   -5.437186|   -0.004098|    0.010708|
|          21|   -6.193508|   -5.644113|   -0.001737|    0.005505|
|          22|   -6.087474|   -5.542865|    0.002250|   -0.006323|
|          23|   -6.286980|   -5.741060|    0.000844|   -0.003401|
|          24|   -6.178700|   -5.633663|   -0.001373|    0.004395|
|          25|   -6.346379|   -5.802698|   -0.000620|    0.002653|
|          26|   -6.304765|   -5.761504|    0.000530|   -0.002727|
|          27|   -6.372760|   -5.832811|    0.000009|   -0.001938|
|          28|   -6.444142|   -5.902605|   -0.000462|    0.001765|
|          29|   -6.446200|   -5.904375|    0.000042|    0.001506|
|          30|   -6.514777|   -5.977730|    0.000485|   -0.001184|
|          31|   -6.507993|   -5.971526|    0.000291|   -0.001393|
|          32|   -6.550613|   -6.016063|    0.000103|    0.000491|
|          33|   -6.591224|   -6.056502|    0.000409|    0.001060|
|          34|   -6.581883|   -6.046602|    0.000706|   -0.000200|
|          35|   -6.598412|   -6.065388|    0.000657|   -0.000977|
|          36|   -6.602576|   -6.069741|    0.000532|   -0.000331|
|          37|   -6.616810|   -6.085745|    0.000613|    0.000462|
|          38|   -6.629502|   -6.099350|    0.000800|    0.000265|
|          39|   -6.633669|   -6.103705|    0.000805|   -0.000416|
|          40|   -6.642022|   -6.112529|    0.000656|   -0.000554|
|          41|   -6.650168|   -6.121714|    0.000581|   -0.000148|
|          42|   -6.665068|   -6.138612|    0.000671|    0.000094|
|          43|   -6.679984|   -6.154814|    0.000734|   -0.000131|
|          44|   -6.691332|   -6.166625|    0.000637|   -0.000420|
|          45|   -6.705152|   -6.181465|    0.000477|   -0.000403|
|          46|   -6.718287|   -6.195974|    0.000426|   -0.000217|
|          47|   -6.735095|   -6.214359|    0.000494|   -0.000182|
|          48|   -6.753242|   -6.233392|    0.000524|   -0.000329|
|          49|   -6.766610|   -6.246847|    0.000454|   -0.000434|
|          50|   -6.779000|   -6.259910|    0.000360|   -0.000388|
|          51|   -6.791806|   -6.273752|    0.000346|   -0.000308|
|          52|   -6.804435|   -6.287098|    0.000409|   -0.000323|
|          53|   -6.816447|   -6.299360|    0.000460|   -0.000402|
|          54|   -6.826195|   -6.309087|    0.000457|   -0.000432|
|          55|   -6.834884|   -6.318061|    0.000443|   -0.000389|
|          56|   -6.844275|   -6.328007|    0.000469|   -0.000350|
|          57|   -6.853818|   -6.338010|    0.000534|   -0.000364|
|          58|   -6.863011|   -6.347480|    0.000595|   -0.000400|
|          59|   -6.872166|   -6.356868|    0.000629|   -0.000403|
|          60|   -6.882155|   -6.367164|    0.000653|   -0.000373|
|          61|   -6.893435|   -6.378774|    0.000690|   -0.000354|
|          62|   -6.905569|   -6.391171|    0.000738|   -0.000363|
|          63|   -6.918236|   -6.404004|    0.000779|   -0.000377|
|          64|   -6.931603|   -6.417455|    0.000804|   -0.000374|
|          65|   -6.945894|   -6.431749|    0.000819|   -0.000360|
|          66|   -6.961009|   -6.446791|    0.000835|   -0.000355|
|          67|   -6.976492|   -6.462127|    0.000849|   -0.000363|
|          68|   -6.992093|   -6.477503|    0.000855|   -0.000370|
|          69|   -7.007865|   -6.492975|    0.000852|   -0.000370|
|          70|   -7.023704|   -6.508449|    0.000843|   -0.000368|
|          71|   -7.039307|   -6.523665|    0.000833|   -0.000371|
|          72|   -7.054390|   -6.538366|    0.000821|   -0.000380|
|          73|   -7.068941|   -6.552520|    0.000806|   -0.000386|
|          74|   -7.083172|   -6.566322|    0.000788|   -0.000389|
|          75|   -7.097193|   -6.579892|    0.000770|   -0.000392|
|          76|   -7.110933|   -6.593188|    0.000753|   -0.000398|
|          77|   -7.124378|   -6.606207|    0.000739|   -0.000405|
|          78|   -7.137715|   -6.619111|    0.000727|   -0.000410|
|          79|   -7.151203|   -6.632144|    0.000718|   -0.000412|
|          80|   -7.164971|   -6.645446|    0.000712|   -0.000415|
|          81|   -7.178991|   -6.659015|    0.000710|   -0.000419|
|          82|   -7.193220|   -6.672826|    0.000712|   -0.000422|
|          83|   -7.207677|   -6.686910|    0.000717|   -0.000424|
|          84|   -7.222368|   -6.701283|    0.000726|   -0.000425|
|          85|   -7.237206|   -6.715877|    0.000738|   -0.000425|
|          86|   -7.252063|   -6.730575|    0.000753|   -0.000425|
|          87|   -7.266856|   -6.745295|    0.000769|   -0.000426|
|          88|   -7.281544|   -6.759983|    0.000788|   -0.000425|
|          89|   -7.296079|   -6.774575|    0.000807|   -0.000424|
|          90|   -7.310427|   -6.789013|    0.000826|   -0.000423|
|          91|   -7.324627|   -6.803309|    0.000845|   -0.000422|
|          92|   -7.338795|   -6.817560|    0.000863|   -0.000421|
|          93|   -7.353073|   -6.831897|    0.000879|   -0.000419|
|          94|   -7.367582|   -6.846440|    0.000894|   -0.000418|
|          95|   -7.382440|   -6.861311|    0.000907|   -0.000417|
|          96|   -7.397758|   -6.876652|    0.000917|   -0.000417|
|          97|   -7.413620|   -6.892586|    0.000925|   -0.000417|
|          98|   -7.430038|   -6.909172|    0.000930|   -0.000416|
|          99|   -7.446941|   -6.926380|    0.000933|   -0.000417|
|         100|   -7.464182|   -6.944104|    0.000934|   -0.000417|
|         101|   -7.481559|   -6.962175|    0.000933|   -0.000418|
|         102|   -7.498834|   -6.980381|    0.000931|   -0.000419|
|         103|   -7.515758|   -6.998474|    0.000928|   -0.000420|
|         104|   -7.532092|   -7.016191|    0.000923|   -0.000422|
|         105|   -7.547641|   -7.033285|    0.000919|   -0.000423|
|         106|   -7.562292|   -7.049571|    0.000914|   -0.000425|
|         107|   -7.576038|   -7.064961|    0.000910|   -0.000427|
|         108|   -7.588992|   -7.079491|    0.000906|   -0.000428|
|         109|   -7.601363|   -7.093314|    0.000903|   -0.000430|
|         110|   -7.613424|   -7.106680|    0.000902|   -0.000432|
|         111|   -7.625470|   -7.119898|    0.000901|   -0.000434|
|         112|   -7.637776|   -7.133280|    0.000901|   -0.000435|
|         113|   -7.650554|   -7.147091|    0.000903|   -0.000436|
|         114|   -7.663923|   -7.161509|    0.000906|   -0.000438|
|         115|   -7.677904|   -7.176613|    0.000909|   -0.000439|
|         116|   -7.692432|   -7.192380|    0.000914|   -0.000440|
|         117|   -7.707364|   -7.208700|    0.000919|   -0.000440|
|         118|   -7.722506|   -7.225378|    0.000925|   -0.000441|
|         119|   -7.737628|   -7.242164|    0.000931|   -0.000442|
|         120|   -7.752500|   -7.258782|    0.000937|   -0.000442|
|         121|   -7.766931|   -7.274979|    0.000943|   -0.000442|
|         122|   -7.780806|   -7.290572|    0.000948|   -0.000442|
|         123|   -7.794112|   -7.305497|    0.000952|   -0.000443|
|         124|   -7.806953|   -7.319836|    0.000956|   -0.000443|
|         125|   -7.819529|   -7.333808|    0.000958|   -0.000443|
|         126|   -7.832104|   -7.347733|    0.000960|   -0.000443|
|         127|   -7.844956|   -7.361971|    0.000960|   -0.000442|
|         128|   -7.858323|   -7.376857|    0.000959|   -0.000442|
|         129|   -7.872365|   -7.392646|    0.000957|   -0.000442|
|         130|   -7.887136|   -7.409468|    0.000953|   -0.000442|
|         131|   -7.902568|   -7.427305|    0.000948|   -0.000443|
|         132|   -7.918480|   -7.445985|    0.000943|   -0.000443|
|         133|   -7.934594|   -7.465185|    0.000936|   -0.000443|
|         134|   -7.950562|   -7.484454|    0.000929|   -0.000443|
|         135|   -7.966008|   -7.503244|    0.000921|   -0.000443|
|         136|   -7.980575|   -7.520975|    0.000913|   -0.000444|
|         137|   -7.993985|   -7.537128|    0.000904|   -0.000444|
|         138|   -8.006103|   -7.551368|    0.000896|   -0.000445|
|         139|   -8.016975|   -7.563640|    0.000887|   -0.000445|
|         140|   -8.026824|   -7.574197|    0.000879|   -0.000446|
|         141|   -8.036004|   -7.583548|    0.000871|   -0.000446|
|         142|   -8.044933|   -7.592337|    0.000863|   -0.000447|
|         143|   -8.054014|   -7.601221|    0.000856|   -0.000448|
|         144|   -8.063575|   -7.610761|    0.000848|   -0.000448|
|         145|   -8.073833|   -7.621357|    0.000842|   -0.000449|
|         146|   -8.084873|   -7.633223|    0.000836|   -0.000450|
|         147|   -8.096653|   -7.646382|    0.000830|   -0.000450|
|         148|   -8.109022|   -7.660685|    0.000824|   -0.000451|
|         149|   -8.121744|   -7.675835|    0.000819|   -0.000451|
|         150|   -8.134533|   -7.691416|    0.000814|   -0.000452|
|         151|   -8.147090|   -7.706947|    0.000810|   -0.000453|
|         152|   -8.159155|   -7.721944|    0.000805|   -0.000453|
|         153|   -8.170549|   -7.736012|    0.000801|   -0.000454|
|         154|   -8.181219|   -7.748941|    0.000796|   -0.000454|
|         155|   -8.191251|   -7.760758|    0.000792|   -0.000455|
|         156|   -8.200851|   -7.771725|    0.000787|   -0.000455|
|         157|   -8.210301|   -7.782278|    0.000782|   -0.000455|
|         158|   -8.219905|   -7.792937|    0.000777|   -0.000456|
|         159|   -8.229938|   -7.804208|    0.000772|   -0.000456|
|         160|   -8.240605|   -7.816515|    0.000766|   -0.000456|
|         161|   -8.252011|   -7.830142|    0.000761|   -0.000456|
|         162|   -8.264147|   -7.845204|    0.000755|   -0.000456|
|         163|   -8.276889|   -7.861630|    0.000748|   -0.000457|
|         164|   -8.290009|   -7.879154|    0.000742|   -0.000457|
|         165|   -8.303192|   -7.897326|    0.000735|   -0.000457|
|         166|   -8.316072|   -7.915527|    0.000728|   -0.000457|
|         167|   -8.328279|   -7.933034|    0.000721|   -0.000457|
|         168|   -8.339502|   -7.949129|    0.000714|   -0.000457|
|         169|   -8.349550|   -7.963248|    0.000707|   -0.000457|
|         170|   -8.358391|   -7.975121|    0.000700|   -0.000457|
|         171|   -8.366158|   -7.984839|    0.000694|   -0.000457|
|         172|   -8.373113|   -7.992826|    0.000687|   -0.000458|
|         173|   -8.379590|   -7.999717|    0.000681|   -0.000458|
|         174|   -8.385934|   -8.006221|    0.000675|   -0.000458|
|         175|   -8.392448|   -8.012995|    0.000669|   -0.000458|
|         176|   -8.399363|   -8.020557|    0.000663|   -0.000458|
|         177|   -8.406811|   -8.029250|    0.000658|   -0.000458|
|         178|   -8.414830|   -8.039227|    0.000653|   -0.000458|
|         179|   -8.423365|   -8.050456|    0.000648|   -0.000459|
|         180|   -8.432287|   -8.062738|    0.000644|   -0.000459|
|         181|   -8.441411|   -8.075735|    0.000640|   -0.000459|
|         182|   -8.450527|   -8.089006|    0.000636|   -0.000459|
|         183|   -8.459430|   -8.102069|    0.000632|   -0.000459|
|         184|   -8.467952|   -8.114482|    0.000628|   -0.000459|
|         185|   -8.475992|   -8.125922|    0.000625|   -0.000460|
|         186|   -8.483530|   -8.136251|    0.000622|   -0.000460|
|         187|   -8.490624|   -8.145538|    0.000618|   -0.000460|
|         188|   -8.497395|   -8.154033|    0.000615|   -0.000460|
|         189|   -8.503996|   -8.162097|    0.000612|   -0.000460|
|         190|   -8.510585|   -8.170126|    0.000609|   -0.000461|
|         191|   -8.517292|   -8.178482|    0.000606|   -0.000461|
|         192|   -8.524211|   -8.187438|    0.000602|   -0.000461|
|         193|   -8.531382|   -8.197154|    0.000599|   -0.000461|
|         194|   -8.538791|   -8.207657|    0.000596|   -0.000461|
|         195|   -8.546378|   -8.218847|    0.000592|   -0.000461|
|         196|   -8.554044|   -8.230506|    0.000589|   -0.000461|
|         197|   -8.561668|   -8.242318|    0.000585|   -0.000461|
|         198|   -8.569122|   -8.253910|    0.000582|   -0.000461|
|         199|   -8.576294|   -8.264900|    0.000578|   -0.000461|
|         200|   -8.583104|   -8.274965|    0.000574|   -0.000461|
|         201|   -8.589515|   -8.283902|    0.000571|   -0.000461|
|         202|   -8.595544|   -8.291662|    0.000567|   -0.000461|
|         203|   -8.601251|   -8.298359|    0.000564|   -0.000461|
|         204|   -8.606727|   -8.304234|    0.000560|   -0.000461|
|         205|   -8.612082|   -8.309607|    0.000557|   -0.000461|
|         206|   -8.617424|   -8.314813|    0.000553|   -0.000461|
|         207|   -8.622843|   -8.320153|    0.000550|   -0.000461|
|         208|   -8.628406|   -8.325858|    0.000547|   -0.000461|
|         209|   -8.634146|   -8.332070|    0.000544|   -0.000461|
|         210|   -8.640065|   -8.338843|    0.000541|   -0.000461|
|         211|   -8.646138|   -8.346142|    0.000539|   -0.000461|
|         212|   -8.652315|   -8.353864|    0.000536|   -0.000461|
|         213|   -8.658534|   -8.361848|    0.000533|   -0.000461|
|         214|   -8.664725|   -8.369907|    0.000531|   -0.000461|
|         215|   -8.670826|   -8.377852|    0.000529|   -0.000461|
|         216|   -8.676784|   -8.385523|    0.000526|   -0.000461|
|         217|   -8.682569|   -8.392810|    0.000524|   -0.000461|
|         218|   -8.688172|   -8.399670|    0.000522|   -0.000461|
|         219|   -8.693608|   -8.406132|    0.000520|   -0.000461|
|         220|   -8.698907|   -8.412281|    0.000518|   -0.000462|
|         221|   -8.704112|   -8.418239|    0.000516|   -0.000462|
|         222|   -8.709267|   -8.424142|    0.000514|   -0.000462|
|         223|   -8.714412|   -8.430113|    0.000512|   -0.000462|
|         224|   -8.719579|   -8.436243|    0.000510|   -0.000462|
|         225|   -8.724784|   -8.442581|    0.000508|   -0.000461|
|         226|   -8.730031|   -8.449129|    0.000506|   -0.000461|
|         227|   -8.735307|   -8.455843|    0.000504|   -0.000461|
|         228|   -8.740593|   -8.462640|    0.000502|   -0.000461|
|         229|   -8.745860|   -8.469415|    0.000500|   -0.000461|
|         230|   -8.751078|   -8.476053|    0.000498|   -0.000461|
|         231|   -8.756220|   -8.482445|    0.000496|   -0.000461|
|         232|   -8.761265|   -8.488508|    0.000494|   -0.000461|
|         233|   -8.766200|   -8.494196|    0.000492|   -0.000461|
|         234|   -8.771025|   -8.499504|    0.000490|   -0.000461|
|         235|   -8.775748|   -8.504470|    0.000488|   -0.000461|
|         236|   -8.780386|   -8.509168|    0.000486|   -0.000461|
|         237|   -8.784961|   -8.513695|    0.000484|   -0.000461|
|         238|   -8.789499|   -8.518157|    0.000482|   -0.000461|
|         239|   -8.794023|   -8.522656|    0.000480|   -0.000461|
|         240|   -8.798554|   -8.527278|    0.000478|   -0.000461|
|         241|   -8.803105|   -8.532086|    0.000477|   -0.000461|
|         242|   -8.807684|   -8.537114|    0.000475|   -0.000461|
|         243|   -8.812290|   -8.542366|    0.000474|   -0.000461|
|         244|   -8.816919|   -8.547821|    0.000472|   -0.000461|
|         245|   -8.821559|   -8.553438|    0.000471|   -0.000461|
|         246|   -8.826197|   -8.559161|    0.000470|   -0.000461|
|         247|   -8.830816|   -8.564926|    0.000468|   -0.000460|
|         248|   -8.835405|   -8.570675|    0.000467|   -0.000460|
|         249|   -8.839950|   -8.576358|    0.000466|   -0.000460|
|         250|   -8.844446|   -8.581941|    0.000465|   -0.000460|
+-----------------------------------------------------------------------+
|        File Writing Summary       |              Filename             |
+-----------------------------------------------------------------------+
|SU2 restart                        |restart_flow.dat                   |
|Paraview                           |flow.vtu                           |
|Paraview surface                   |surface_flow.vtu                   |
|CSV file                           |surface_flow.csv                   |
+-----------------------------------------------------------------------+
+----------------------------------------------------------------+
|  Inner_Iter|    rms[Rho]|   rms[RhoE]|          CL|          CD|
+----------------------------------------------------------------+
|         251|   -8.848888|   -8.587407|    0.000464|   -0.000460|
|         252|   -8.853279|   -8.592759|    0.000463|   -0.000460|
|         253|   -8.857623|   -8.598016|    0.000462|   -0.000460|
|         254|   -8.861929|   -8.603207|    0.000461|   -0.000460|
|         255|   -8.866204|   -8.608367|    0.000460|   -0.000460|
|         256|   -8.870458|   -8.613531|    0.000459|   -0.000460|
|         257|   -8.874699|   -8.618729|    0.000458|   -0.000460|
|         258|   -8.878931|   -8.623982|    0.000457|   -0.000460|
|         259|   -8.883159|   -8.629299|    0.000457|   -0.000460|
|         260|   -8.887383|   -8.634681|    0.000456|   -0.000460|
|         261|   -8.891602|   -8.640114|    0.000455|   -0.000460|
|         262|   -8.895812|   -8.645581|    0.000454|   -0.000460|
|         263|   -8.900011|   -8.651057|    0.000453|   -0.000460|
|         264|   -8.904193|   -8.656519|    0.000453|   -0.000460|
|         265|   -8.908356|   -8.661946|    0.000452|   -0.000459|
|         266|   -8.912498|   -8.667324|    0.000451|   -0.000459|
|         267|   -8.916618|   -8.672644|    0.000451|   -0.000459|
|         268|   -8.920719|   -8.677909|    0.000450|   -0.000459|
|         269|   -8.924804|   -8.683129|    0.000449|   -0.000459|
|         270|   -8.928877|   -8.688321|    0.000449|   -0.000459|
|         271|   -8.932943|   -8.693506|    0.000448|   -0.000459|
|         272|   -8.937010|   -8.698707|    0.000448|   -0.000459|
|         273|   -8.941083|   -8.703948|    0.000447|   -0.000459|
|         274|   -8.945166|   -8.709245|    0.000447|   -0.000459|
|         275|   -8.949265|   -8.714614|    0.000446|   -0.000459|
|         276|   -8.953382|   -8.720061|    0.000446|   -0.000459|
|         277|   -8.957518|   -8.725586|    0.000445|   -0.000459|
|         278|   -8.961674|   -8.731185|    0.000445|   -0.000459|
|         279|   -8.965849|   -8.736846|    0.000445|   -0.000458|
|         280|   -8.970040|   -8.742556|    0.000445|   -0.000458|
|         281|   -8.974247|   -8.748299|    0.000444|   -0.000458|
|         282|   -8.978466|   -8.754061|    0.000444|   -0.000458|
|         283|   -8.982695|   -8.759828|    0.000444|   -0.000458|
|         284|   -8.986934|   -8.765590|    0.000444|   -0.000458|
|         285|   -8.991182|   -8.771344|    0.000444|   -0.000458|
|         286|   -8.995439|   -8.777086|    0.000444|   -0.000458|
|         287|   -8.999705|   -8.782820|    0.000444|   -0.000458|
|         288|   -9.003981|   -8.788551|    0.000444|   -0.000458|
|         289|   -9.008271|   -8.794286|    0.000444|   -0.000458|
|         290|   -9.012574|   -8.800034|    0.000444|   -0.000458|
|         291|   -9.016893|   -8.805801|    0.000444|   -0.000458|
|         292|   -9.021229|   -8.811596|    0.000444|   -0.000458|
|         293|   -9.025584|   -8.817421|    0.000444|   -0.000458|
|         294|   -9.029959|   -8.823281|    0.000444|   -0.000458|
|         295|   -9.034353|   -8.829175|    0.000444|   -0.000457|
|         296|   -9.038767|   -8.835102|    0.000444|   -0.000457|
|         297|   -9.043202|   -8.841061|    0.000444|   -0.000457|
|         298|   -9.047657|   -8.847047|    0.000445|   -0.000457|
|         299|   -9.052132|   -8.853059|    0.000445|   -0.000457|
|         300|   -9.056627|   -8.859096|    0.000445|   -0.000457|
|         301|   -9.061144|   -8.865156|    0.000445|   -0.000457|
|         302|   -9.065682|   -8.871239|    0.000445|   -0.000457|
|         303|   -9.070243|   -8.877349|    0.000446|   -0.000457|
|         304|   -9.074828|   -8.883487|    0.000446|   -0.000457|
|         305|   -9.079437|   -8.889656|    0.000446|   -0.000457|
|         306|   -9.084073|   -8.895860|    0.000446|   -0.000457|
|         307|   -9.088736|   -8.902102|    0.000447|   -0.000457|
|         308|   -9.093428|   -8.908383|    0.000447|   -0.000457|
|         309|   -9.098149|   -8.914704|    0.000447|   -0.000457|
|         310|   -9.102900|   -8.921063|    0.000448|   -0.000457|
|         311|   -9.107682|   -8.927459|    0.000448|   -0.000457|
|         312|   -9.112493|   -8.933887|    0.000449|   -0.000457|
|         313|   -9.117334|   -8.940343|    0.000449|   -0.000456|
|         314|   -9.122206|   -8.946823|    0.000450|   -0.000456|
|         315|   -9.127106|   -8.953321|    0.000450|   -0.000456|
|         316|   -9.132035|   -8.959834|    0.000450|   -0.000456|
|         317|   -9.136992|   -8.966358|    0.000451|   -0.000456|
|         318|   -9.141977|   -8.972891|    0.000451|   -0.000456|
|         319|   -9.146991|   -8.979433|    0.000452|   -0.000456|
|         320|   -9.152032|   -8.985984|    0.000452|   -0.000456|
|         321|   -9.157101|   -8.992547|    0.000453|   -0.000456|
|         322|   -9.162198|   -8.999123|    0.000453|   -0.000456|
|         323|   -9.167323|   -9.005716|    0.000454|   -0.000456|
|         324|   -9.172478|   -9.012329|    0.000455|   -0.000456|
|         325|   -9.177662|   -9.018967|    0.000455|   -0.000456|
|         326|   -9.182875|   -9.025633|    0.000456|   -0.000456|
|         327|   -9.188118|   -9.032329|    0.000456|   -0.000456|
|         328|   -9.193392|   -9.039057|    0.000457|   -0.000456|
|         329|   -9.198695|   -9.045818|    0.000457|   -0.000456|
|         330|   -9.204029|   -9.052615|    0.000458|   -0.000456|
|         331|   -9.209394|   -9.059447|    0.000459|   -0.000456|
|         332|   -9.214790|   -9.066314|    0.000459|   -0.000456|
|         333|   -9.220217|   -9.073217|    0.000460|   -0.000455|
|         334|   -9.225676|   -9.080156|    0.000460|   -0.000455|
|         335|   -9.231166|   -9.087131|    0.000461|   -0.000455|
|         336|   -9.236688|   -9.094142|    0.000462|   -0.000455|
|         337|   -9.242243|   -9.101189|    0.000462|   -0.000455|
|         338|   -9.247832|   -9.108271|    0.000463|   -0.000455|
|         339|   -9.253453|   -9.115389|    0.000464|   -0.000455|
|         340|   -9.259108|   -9.122541|    0.000464|   -0.000455|
|         341|   -9.264798|   -9.129727|    0.000465|   -0.000455|
|         342|   -9.270522|   -9.136945|    0.000466|   -0.000455|
|         343|   -9.276280|   -9.144192|    0.000466|   -0.000455|
|         344|   -9.282073|   -9.151466|    0.000467|   -0.000455|
|         345|   -9.287901|   -9.158764|    0.000468|   -0.000455|
|         346|   -9.293762|   -9.166083|    0.000468|   -0.000455|
|         347|   -9.299658|   -9.173418|    0.000469|   -0.000455|
|         348|   -9.305587|   -9.180769|    0.000470|   -0.000455|
|         349|   -9.311551|   -9.188131|    0.000470|   -0.000455|
|         350|   -9.317547|   -9.195504|    0.000471|   -0.000455|
|         351|   -9.323576|   -9.202886|    0.000472|   -0.000455|
|         352|   -9.329639|   -9.210276|    0.000473|   -0.000455|
|         353|   -9.335734|   -9.217676|    0.000473|   -0.000455|
|         354|   -9.341862|   -9.225086|    0.000474|   -0.000455|
|         355|   -9.348023|   -9.232509|    0.000475|   -0.000455|
|         356|   -9.354216|   -9.239947|    0.000475|   -0.000455|
|         357|   -9.360442|   -9.247403|    0.000476|   -0.000455|
|         358|   -9.366702|   -9.254878|    0.000477|   -0.000455|
|         359|   -9.372994|   -9.262378|    0.000477|   -0.000455|
|         360|   -9.379319|   -9.269903|    0.000478|   -0.000455|
|         361|   -9.385677|   -9.277456|    0.000479|   -0.000455|
|         362|   -9.392069|   -9.285040|    0.000480|   -0.000454|
|         363|   -9.398494|   -9.292656|    0.000480|   -0.000454|
|         364|   -9.404952|   -9.300305|    0.000481|   -0.000454|
|         365|   -9.411443|   -9.307988|    0.000482|   -0.000454|
|         366|   -9.417968|   -9.315705|    0.000482|   -0.000454|
|         367|   -9.424526|   -9.323457|    0.000483|   -0.000454|
|         368|   -9.431118|   -9.331244|    0.000484|   -0.000454|
|         369|   -9.437743|   -9.339064|    0.000484|   -0.000454|
|         370|   -9.444402|   -9.346918|    0.000485|   -0.000454|
|         371|   -9.451095|   -9.354804|    0.000486|   -0.000454|
|         372|   -9.457821|   -9.362720|    0.000487|   -0.000454|
|         373|   -9.464582|   -9.370666|    0.000487|   -0.000454|
|         374|   -9.471376|   -9.378640|    0.000488|   -0.000454|
|         375|   -9.478204|   -9.386638|    0.000489|   -0.000454|
|         376|   -9.485065|   -9.394659|    0.000489|   -0.000454|
|         377|   -9.491961|   -9.402701|    0.000490|   -0.000454|
|         378|   -9.498890|   -9.410761|    0.000491|   -0.000454|
|         379|   -9.505853|   -9.418836|    0.000491|   -0.000454|
|         380|   -9.512849|   -9.426923|    0.000492|   -0.000454|
|         381|   -9.519879|   -9.435022|    0.000493|   -0.000454|
|         382|   -9.526942|   -9.443129|    0.000493|   -0.000454|
|         383|   -9.534038|   -9.451245|    0.000494|   -0.000454|
|         384|   -9.541166|   -9.459367|    0.000495|   -0.000454|
|         385|   -9.548328|   -9.467496|    0.000495|   -0.000454|
|         386|   -9.555522|   -9.475633|    0.000496|   -0.000454|
|         387|   -9.562749|   -9.483778|    0.000497|   -0.000454|
|         388|   -9.570009|   -9.491934|    0.000497|   -0.000454|
|         389|   -9.577301|   -9.500100|    0.000498|   -0.000454|
|         390|   -9.584627|   -9.508281|    0.000499|   -0.000454|
|         391|   -9.591985|   -9.516478|    0.000499|   -0.000454|
|         392|   -9.599376|   -9.524693|    0.000500|   -0.000454|
|         393|   -9.606800|   -9.532929|    0.000501|   -0.000454|
|         394|   -9.614257|   -9.541189|    0.000501|   -0.000454|
|         395|   -9.621747|   -9.549473|    0.000502|   -0.000454|
|         396|   -9.629270|   -9.557784|    0.000502|   -0.000454|
|         397|   -9.636826|   -9.566123|    0.000503|   -0.000454|
|         398|   -9.644415|   -9.574490|    0.000504|   -0.000454|
|         399|   -9.652037|   -9.582887|    0.000504|   -0.000454|
|         400|   -9.659693|   -9.591312|    0.000505|   -0.000454|
|         401|   -9.667382|   -9.599766|    0.000506|   -0.000454|
|         402|   -9.675103|   -9.608248|    0.000506|   -0.000454|
|         403|   -9.682858|   -9.616757|    0.000507|   -0.000454|
|         404|   -9.690645|   -9.625291|    0.000507|   -0.000454|
|         405|   -9.698466|   -9.633848|    0.000508|   -0.000454|
|         406|   -9.706320|   -9.642427|    0.000508|   -0.000454|
|         407|   -9.714206|   -9.651025|    0.000509|   -0.000454|
|         408|   -9.722125|   -9.659640|    0.000510|   -0.000454|
|         409|   -9.730077|   -9.668269|    0.000510|   -0.000454|
|         410|   -9.738061|   -9.676911|    0.000511|   -0.000454|
|         411|   -9.746078|   -9.685564|    0.000511|   -0.000454|
|         412|   -9.754128|   -9.694224|    0.000512|   -0.000454|
|         413|   -9.762210|   -9.702891|    0.000512|   -0.000454|
|         414|   -9.770324|   -9.711562|    0.000513|   -0.000454|
|         415|   -9.778471|   -9.720237|    0.000514|   -0.000454|
|         416|   -9.786650|   -9.728915|    0.000514|   -0.000454|
|         417|   -9.794861|   -9.737596|    0.000515|   -0.000453|
|         418|   -9.803105|   -9.746280|    0.000515|   -0.000453|
|         419|   -9.811381|   -9.754966|    0.000516|   -0.000453|
|         420|   -9.819689|   -9.763658|    0.000516|   -0.000453|
|         421|   -9.828030|   -9.772354|    0.000517|   -0.000453|
|         422|   -9.836403|   -9.781058|    0.000517|   -0.000453|
|         423|   -9.844809|   -9.789771|    0.000518|   -0.000453|
|         424|   -9.853247|   -9.798495|    0.000518|   -0.000453|
|         425|   -9.861718|   -9.807231|    0.000519|   -0.000453|
|         426|   -9.870221|   -9.815982|    0.000519|   -0.000453|
|         427|   -9.878757|   -9.824748|    0.000520|   -0.000453|
|         428|   -9.887326|   -9.833533|    0.000520|   -0.000453|
|         429|   -9.895928|   -9.842335|    0.000521|   -0.000453|
|         430|   -9.904562|   -9.851157|    0.000521|   -0.000453|
|         431|   -9.913229|   -9.859999|    0.000522|   -0.000453|
|         432|   -9.921928|   -9.868860|    0.000522|   -0.000453|
|         433|   -9.930660|   -9.877740|    0.000522|   -0.000453|
|         434|   -9.939425|   -9.886640|    0.000523|   -0.000453|
|         435|   -9.948222|   -9.895557|    0.000523|   -0.000453|
|         436|   -9.957051|   -9.904490|    0.000524|   -0.000453|
|         437|   -9.965913|   -9.913438|    0.000524|   -0.000453|
|         438|   -9.974807|   -9.922399|    0.000525|   -0.000453|
|         439|   -9.983732|   -9.931371|    0.000525|   -0.000453|
|         440|   -9.992690|   -9.940352|    0.000525|   -0.000453|
|         441|  -10.001680|   -9.949340|    0.000526|   -0.000453|
|         442|  -10.010701|   -9.958333|    0.000526|   -0.000453|
|         443|  -10.019754|   -9.967329|    0.000527|   -0.000453|
|         444|  -10.028838|   -9.976326|    0.000527|   -0.000453|
|         445|  -10.037955|   -9.985323|    0.000527|   -0.000453|
|         446|  -10.047102|   -9.994317|    0.000528|   -0.000453|
|         447|  -10.056281|  -10.003310|    0.000528|   -0.000453|
|         448|  -10.065491|  -10.012299|    0.000529|   -0.000453|
|         449|  -10.074733|  -10.021284|    0.000529|   -0.000453|
|         450|  -10.084006|  -10.030265|    0.000529|   -0.000453|
|         451|  -10.093310|  -10.039243|    0.000530|   -0.000453|
|         452|  -10.102645|  -10.048219|    0.000530|   -0.000453|
|         453|  -10.112012|  -10.057192|    0.000530|   -0.000453|
|         454|  -10.121410|  -10.066164|    0.000531|   -0.000453|
|         455|  -10.130839|  -10.075137|    0.000531|   -0.000453|
|         456|  -10.140299|  -10.084111|    0.000531|   -0.000453|
|         457|  -10.149791|  -10.093087|    0.000532|   -0.000453|
|         458|  -10.159314|  -10.102067|    0.000532|   -0.000453|
|         459|  -10.168867|  -10.111052|    0.000533|   -0.000453|
|         460|  -10.178452|  -10.120043|    0.000533|   -0.000453|
|         461|  -10.188068|  -10.129040|    0.000533|   -0.000453|
|         462|  -10.197715|  -10.138043|    0.000533|   -0.000453|
|         463|  -10.207392|  -10.147054|    0.000534|   -0.000453|
|         464|  -10.217100|  -10.156071|    0.000534|   -0.000453|
|         465|  -10.226839|  -10.165094|    0.000534|   -0.000453|
|         466|  -10.236608|  -10.174123|    0.000535|   -0.000453|
|         467|  -10.246407|  -10.183158|    0.000535|   -0.000453|
|         468|  -10.256235|  -10.192195|    0.000535|   -0.000453|
|         469|  -10.266094|  -10.201235|    0.000536|   -0.000453|
|         470|  -10.275982|  -10.210277|    0.000536|   -0.000453|
|         471|  -10.285899|  -10.219318|    0.000536|   -0.000453|
|         472|  -10.295845|  -10.228357|    0.000536|   -0.000453|
|         473|  -10.305821|  -10.237393|    0.000537|   -0.000453|
|         474|  -10.315825|  -10.246425|    0.000537|   -0.000453|
|         475|  -10.325857|  -10.255451|    0.000537|   -0.000453|
|         476|  -10.335918|  -10.264469|    0.000537|   -0.000453|
|         477|  -10.346008|  -10.273479|    0.000538|   -0.000453|
|         478|  -10.356125|  -10.282481|    0.000538|   -0.000453|
|         479|  -10.366270|  -10.291472|    0.000538|   -0.000453|
|         480|  -10.376443|  -10.300455|    0.000539|   -0.000453|
|         481|  -10.386643|  -10.309426|    0.000539|   -0.000453|
|         482|  -10.396871|  -10.318388|    0.000539|   -0.000453|
|         483|  -10.407126|  -10.327340|    0.000539|   -0.000453|
|         484|  -10.417408|  -10.336282|    0.000539|   -0.000453|
|         485|  -10.427718|  -10.345216|    0.000540|   -0.000453|
|         486|  -10.438054|  -10.354141|    0.000540|   -0.000453|
|         487|  -10.448417|  -10.363058|    0.000540|   -0.000453|
|         488|  -10.458807|  -10.371969|    0.000540|   -0.000453|
|         489|  -10.469223|  -10.380873|    0.000541|   -0.000453|
|         490|  -10.479665|  -10.389772|    0.000541|   -0.000453|
|         491|  -10.490134|  -10.398665|    0.000541|   -0.000453|
|         492|  -10.500628|  -10.407554|    0.000541|   -0.000453|
|         493|  -10.511148|  -10.416438|    0.000541|   -0.000453|
|         494|  -10.521693|  -10.425317|    0.000542|   -0.000453|
|         495|  -10.532264|  -10.434193|    0.000542|   -0.000453|
|         496|  -10.542859|  -10.443065|    0.000542|   -0.000453|
|         497|  -10.553479|  -10.451931|    0.000542|   -0.000453|
|         498|  -10.564124|  -10.460793|    0.000542|   -0.000453|
|         499|  -10.574792|  -10.469648|    0.000543|   -0.000453|
|         500|  -10.585484|  -10.478497|    0.000543|   -0.000453|
+-----------------------------------------------------------------------+
|        File Writing Summary       |              Filename             |
+-----------------------------------------------------------------------+
|SU2 restart                        |restart_flow.dat                   |
|Paraview                           |flow.vtu                           |
|Paraview surface                   |surface_flow.vtu                   |
|CSV file                           |surface_flow.csv                   |
+-----------------------------------------------------------------------+
+----------------------------------------------------------------+
|  Inner_Iter|    rms[Rho]|   rms[RhoE]|          CL|          CD|
+----------------------------------------------------------------+
|         501|  -10.596199|  -10.487340|    0.000543|   -0.000453|
|         502|  -10.606938|  -10.496175|    0.000543|   -0.000453|
|         503|  -10.617699|  -10.505001|    0.000543|   -0.000453|
|         504|  -10.628483|  -10.513819|    0.000543|   -0.000453|
|         505|  -10.639288|  -10.522626|    0.000544|   -0.000453|
|         506|  -10.650116|  -10.531424|    0.000544|   -0.000453|
|         507|  -10.660965|  -10.540210|    0.000544|   -0.000453|
|         508|  -10.671835|  -10.548986|    0.000544|   -0.000453|
|         509|  -10.682726|  -10.557750|    0.000544|   -0.000453|
|         510|  -10.693638|  -10.566503|    0.000544|   -0.000453|
|         511|  -10.704569|  -10.575243|    0.000545|   -0.000453|
|         512|  -10.715522|  -10.583972|    0.000545|   -0.000453|
|         513|  -10.726493|  -10.592690|    0.000545|   -0.000453|
|         514|  -10.737484|  -10.601396|    0.000545|   -0.000453|
|         515|  -10.748495|  -10.610091|    0.000545|   -0.000453|
|         516|  -10.759524|  -10.618777|    0.000545|   -0.000453|
|         517|  -10.770572|  -10.627453|    0.000545|   -0.000453|
|         518|  -10.781639|  -10.636118|    0.000546|   -0.000453|
|         519|  -10.792723|  -10.644774|    0.000546|   -0.000453|
|         520|  -10.803826|  -10.653423|    0.000546|   -0.000453|
|         521|  -10.814945|  -10.662062|    0.000546|   -0.000453|
|         522|  -10.826082|  -10.670695|    0.000546|   -0.000453|
|         523|  -10.837236|  -10.679319|    0.000546|   -0.000453|
|         524|  -10.848406|  -10.687937|    0.000546|   -0.000453|
|         525|  -10.859593|  -10.696548|    0.000546|   -0.000453|
|         526|  -10.870794|  -10.705152|    0.000547|   -0.000453|
|         527|  -10.882012|  -10.713749|    0.000547|   -0.000453|
|         528|  -10.893244|  -10.722340|    0.000547|   -0.000453|
|         529|  -10.904491|  -10.730923|    0.000547|   -0.000453|
|         530|  -10.915752|  -10.739500|    0.000547|   -0.000453|
|         531|  -10.927027|  -10.748070|    0.000547|   -0.000453|
|         532|  -10.938315|  -10.756632|    0.000547|   -0.000453|
|         533|  -10.949616|  -10.765188|    0.000547|   -0.000453|
|         534|  -10.960929|  -10.773736|    0.000547|   -0.000453|
|         535|  -10.972255|  -10.782278|    0.000547|   -0.000453|
|         536|  -10.983592|  -10.790811|    0.000548|   -0.000453|
|         537|  -10.994941|  -10.799337|    0.000548|   -0.000453|
|         538|  -11.006300|  -10.807856|    0.000548|   -0.000453|
|         539|  -11.017670|  -10.816366|    0.000548|   -0.000453|
|         540|  -11.029049|  -10.824870|    0.000548|   -0.000453|
|         541|  -11.040439|  -10.833366|    0.000548|   -0.000453|
|         542|  -11.051838|  -10.841856|    0.000548|   -0.000453|
|         543|  -11.063245|  -10.850339|    0.000548|   -0.000453|
|         544|  -11.074661|  -10.858815|    0.000548|   -0.000453|
|         545|  -11.086085|  -10.867285|    0.000548|   -0.000453|
|         546|  -11.097517|  -10.875750|    0.000548|   -0.000453|
|         547|  -11.108956|  -10.884208|    0.000549|   -0.000453|
|         548|  -11.120402|  -10.892662|    0.000549|   -0.000453|
|         549|  -11.131854|  -10.901111|    0.000549|   -0.000453|
|         550|  -11.143313|  -10.909555|    0.000549|   -0.000453|
|         551|  -11.154777|  -10.917994|    0.000549|   -0.000453|
|         552|  -11.166246|  -10.926429|    0.000549|   -0.000453|
|         553|  -11.177721|  -10.934862|    0.000549|   -0.000453|
|         554|  -11.189200|  -10.943291|    0.000549|   -0.000453|
|         555|  -11.200683|  -10.951718|    0.000549|   -0.000453|
|         556|  -11.212169|  -10.960138|    0.000549|   -0.000453|
|         557|  -11.223659|  -10.968557|    0.000549|   -0.000453|
|         558|  -11.235151|  -10.976974|    0.000549|   -0.000453|
|         559|  -11.246646|  -10.985389|    0.000549|   -0.000453|
|         560|  -11.258142|  -10.993799|    0.000549|   -0.000453|
|         561|  -11.269639|  -11.002207|    0.000550|   -0.000453|
|         562|  -11.281137|  -11.010613|    0.000550|   -0.000453|
|         563|  -11.292636|  -11.019015|    0.000550|   -0.000453|
|         564|  -11.304134|  -11.027416|    0.000550|   -0.000453|
|         565|  -11.315631|  -11.035813|    0.000550|   -0.000453|
|         566|  -11.327129|  -11.044211|    0.000550|   -0.000453|
|         567|  -11.338624|  -11.052605|    0.000550|   -0.000453|
|         568|  -11.350117|  -11.060996|    0.000550|   -0.000453|
|         569|  -11.361608|  -11.069387|    0.000550|   -0.000453|
|         570|  -11.373096|  -11.077775|    0.000550|   -0.000453|
|         571|  -11.384581|  -11.086162|    0.000550|   -0.000453|
|         572|  -11.396063|  -11.094548|    0.000550|   -0.000453|
|         573|  -11.407540|  -11.102930|    0.000550|   -0.000453|
|         574|  -11.419012|  -11.111312|    0.000550|   -0.000453|
|         575|  -11.430480|  -11.119695|    0.000550|   -0.000453|
|         576|  -11.441942|  -11.128075|    0.000550|   -0.000453|
|         577|  -11.453399|  -11.136457|    0.000550|   -0.000453|
|         578|  -11.464849|  -11.144837|    0.000550|   -0.000453|
|         579|  -11.476292|  -11.153216|    0.000551|   -0.000453|
|         580|  -11.487727|  -11.161594|    0.000551|   -0.000453|
|         581|  -11.499155|  -11.169971|    0.000551|   -0.000453|
|         582|  -11.510576|  -11.178350|    0.000551|   -0.000453|
|         583|  -11.521987|  -11.186728|    0.000551|   -0.000453|
|         584|  -11.533389|  -11.195107|    0.000551|   -0.000453|
|         585|  -11.544781|  -11.203482|    0.000551|   -0.000453|
|         586|  -11.556164|  -11.211860|    0.000551|   -0.000453|
|         587|  -11.567534|  -11.220234|    0.000551|   -0.000453|
|         588|  -11.578894|  -11.228609|    0.000551|   -0.000453|
|         589|  -11.590242|  -11.236985|    0.000551|   -0.000453|
|         590|  -11.601579|  -11.245360|    0.000551|   -0.000453|
|         591|  -11.612902|  -11.253734|    0.000551|   -0.000453|
|         592|  -11.624212|  -11.262106|    0.000551|   -0.000453|
|         593|  -11.635509|  -11.270479|    0.000551|   -0.000453|
|         594|  -11.646792|  -11.278851|    0.000551|   -0.000453|
|         595|  -11.658058|  -11.287219|    0.000551|   -0.000453|
|         596|  -11.669311|  -11.295589|    0.000551|   -0.000453|
|         597|  -11.680548|  -11.303960|    0.000551|   -0.000453|
|         598|  -11.691767|  -11.312323|    0.000551|   -0.000453|
|         599|  -11.702974|  -11.320695|    0.000551|   -0.000453|
|         600|  -11.714162|  -11.329060|    0.000551|   -0.000453|
|         601|  -11.725331|  -11.337424|    0.000551|   -0.000453|
|         602|  -11.736483|  -11.345789|    0.000551|   -0.000453|
|         603|  -11.747618|  -11.354153|    0.000551|   -0.000453|
|         604|  -11.758734|  -11.362515|    0.000551|   -0.000453|
|         605|  -11.769830|  -11.370877|    0.000551|   -0.000453|
|         606|  -11.780906|  -11.379237|    0.000551|   -0.000453|
|         607|  -11.791966|  -11.387601|    0.000551|   -0.000453|
|         608|  -11.803003|  -11.395960|    0.000551|   -0.000453|
|         609|  -11.814017|  -11.404316|    0.000552|   -0.000453|
|         610|  -11.825011|  -11.412672|    0.000552|   -0.000453|
|         611|  -11.835985|  -11.421031|    0.000552|   -0.000453|
|         612|  -11.846936|  -11.429386|    0.000552|   -0.000453|
|         613|  -11.857863|  -11.437736|    0.000552|   -0.000453|
|         614|  -11.868765|  -11.446083|    0.000552|   -0.000453|
|         615|  -11.879645|  -11.454431|    0.000552|   -0.000453|
|         616|  -11.890499|  -11.462775|    0.000552|   -0.000453|
|         617|  -11.901329|  -11.471115|    0.000552|   -0.000453|
|         618|  -11.912133|  -11.479455|    0.000552|   -0.000453|
|         619|  -11.922910|  -11.487786|    0.000552|   -0.000453|
|         620|  -11.933659|  -11.496115|    0.000552|   -0.000453|
|         621|  -11.944383|  -11.504443|    0.000552|   -0.000453|
|         622|  -11.955074|  -11.512759|    0.000552|   -0.000453|
|         623|  -11.965742|  -11.521076|    0.000552|   -0.000453|
|         624|  -11.976377|  -11.529384|    0.000552|   -0.000453|
|         625|  -11.986984|  -11.537687|    0.000552|   -0.000453|
|         626|  -11.997559|  -11.545984|    0.000552|   -0.000453|
|         627|  -12.008106|  -11.554276|    0.000552|   -0.000453|
|         628|  -12.018619|  -11.562557|    0.000552|   -0.000453|
|         629|  -12.029104|  -11.570838|    0.000552|   -0.000453|
|         630|  -12.039551|  -11.579102|    0.000552|   -0.000453|
|         631|  -12.049974|  -11.587373|    0.000552|   -0.000453|
|         632|  -12.060356|  -11.595623|    0.000552|   -0.000453|
|         633|  -12.070706|  -11.603869|    0.000552|   -0.000453|
|         634|  -12.081027|  -11.612115|    0.000552|   -0.000453|
|         635|  -12.091305|  -11.620338|    0.000552|   -0.000453|
|         636|  -12.101562|  -11.628570|    0.000552|   -0.000453|
|         637|  -12.111774|  -11.636782|    0.000552|   -0.000453|
|         638|  -12.121952|  -11.644987|    0.000552|   -0.000453|
|         639|  -12.132095|  -11.653186|    0.000552|   -0.000453|
|         640|  -12.142200|  -11.661370|    0.000552|   -0.000453|
|         641|  -12.152269|  -11.669544|    0.000552|   -0.000453|
|         642|  -12.162303|  -11.677713|    0.000552|   -0.000453|
|         643|  -12.172297|  -11.685866|    0.000552|   -0.000453|
|         644|  -12.182255|  -11.694014|    0.000552|   -0.000453|
|         645|  -12.192172|  -11.702145|    0.000552|   -0.000453|
|         646|  -12.202052|  -11.710269|    0.000552|   -0.000453|
|         647|  -12.211891|  -11.718375|    0.000552|   -0.000453|
|         648|  -12.221690|  -11.726473|    0.000552|   -0.000453|
|         649|  -12.231443|  -11.734550|    0.000552|   -0.000453|
|         650|  -12.241161|  -11.742621|    0.000552|   -0.000453|
|         651|  -12.250829|  -11.750666|    0.000552|   -0.000453|
|         652|  -12.260464|  -11.758706|    0.000552|   -0.000453|
|         653|  -12.270044|  -11.766721|    0.000552|   -0.000453|
|         654|  -12.279596|  -11.774735|    0.000552|   -0.000453|
|         655|  -12.289084|  -11.782709|    0.000552|   -0.000453|
|         656|  -12.298545|  -11.790686|    0.000552|   -0.000453|
|         657|  -12.307950|  -11.798634|    0.000552|   -0.000453|
|         658|  -12.317312|  -11.806563|    0.000552|   -0.000453|
|         659|  -12.326632|  -11.814479|    0.000552|   -0.000453|
|         660|  -12.335902|  -11.822373|    0.000552|   -0.000453|
|         661|  -12.345132|  -11.830254|    0.000552|   -0.000453|
|         662|  -12.354312|  -11.838111|    0.000552|   -0.000453|
|         663|  -12.363439|  -11.845940|    0.000552|   -0.000453|
|         664|  -12.372518|  -11.853749|    0.000552|   -0.000453|
|         665|  -12.381564|  -11.861551|    0.000552|   -0.000453|
|         666|  -12.390548|  -11.869319|    0.000552|   -0.000453|
|         667|  -12.399491|  -11.877069|    0.000552|   -0.000453|
|         668|  -12.408382|  -11.884793|    0.000552|   -0.000453|
|         669|  -12.417237|  -11.892510|    0.000552|   -0.000453|
|         670|  -12.426036|  -11.900197|    0.000552|   -0.000453|
|         671|  -12.434781|  -11.907850|    0.000552|   -0.000453|
|         672|  -12.443487|  -11.915497|    0.000552|   -0.000453|
|         673|  -12.452144|  -11.923116|    0.000552|   -0.000453|
|         674|  -12.460739|  -11.930697|    0.000552|   -0.000453|
|         675|  -12.469301|  -11.938271|    0.000552|   -0.000453|
|         676|  -12.477811|  -11.945815|    0.000552|   -0.000453|
|         677|  -12.486275|  -11.953340|    0.000552|   -0.000453|
|         678|  -12.494685|  -11.960837|    0.000553|   -0.000453|
|         679|  -12.503040|  -11.968303|    0.000553|   -0.000453|
|         680|  -12.511340|  -11.975731|    0.000553|   -0.000453|
|         681|  -12.519591|  -11.983138|    0.000553|   -0.000453|
|         682|  -12.527812|  -11.990539|    0.000553|   -0.000453|
|         683|  -12.535982|  -11.997909|    0.000553|   -0.000453|
|         684|  -12.544090|  -12.005244|    0.000553|   -0.000453|
|         685|  -12.552143|  -12.012537|    0.000553|   -0.000453|
|         686|  -12.560162|  -12.019827|    0.000553|   -0.000453|
|         687|  -12.568122|  -12.027075|    0.000553|   -0.000453|
|         688|  -12.576036|  -12.034298|    0.000553|   -0.000453|
|         689|  -12.583888|  -12.041489|    0.000553|   -0.000453|
|         690|  -12.591701|  -12.048649|    0.000553|   -0.000453|
|         691|  -12.599457|  -12.055778|    0.000553|   -0.000453|
|         692|  -12.607180|  -12.062896|    0.000553|   -0.000453|
|         693|  -12.614837|  -12.069962|    0.000553|   -0.000453|
|         694|  -12.622455|  -12.077016|    0.000553|   -0.000453|
|         695|  -12.630020|  -12.084029|    0.000553|   -0.000453|
|         696|  -12.637545|  -12.091025|    0.000553|   -0.000453|
|         697|  -12.645024|  -12.097987|    0.000553|   -0.000453|
|         698|  -12.652445|  -12.104916|    0.000553|   -0.000453|
|         699|  -12.659811|  -12.111804|    0.000553|   -0.000453|
|         700|  -12.667163|  -12.118693|    0.000553|   -0.000453|
|         701|  -12.674449|  -12.125536|    0.000553|   -0.000453|
|         702|  -12.681669|  -12.132329|    0.000553|   -0.000453|
|         703|  -12.688880|  -12.139132|    0.000553|   -0.000453|
|         704|  -12.696027|  -12.145876|    0.000553|   -0.000453|
|         705|  -12.703131|  -12.152600|    0.000553|   -0.000453|
|         706|  -12.710211|  -12.159314|    0.000553|   -0.000453|
|         707|  -12.717237|  -12.165989|    0.000553|   -0.000453|
|         708|  -12.724216|  -12.172629|    0.000553|   -0.000453|
|         709|  -12.731154|  -12.179245|    0.000553|   -0.000453|
|         710|  -12.738056|  -12.185834|    0.000553|   -0.000453|
|         711|  -12.744921|  -12.192401|    0.000553|   -0.000453|
|         712|  -12.751714|  -12.198912|    0.000553|   -0.000453|
|         713|  -12.758506|  -12.205432|    0.000553|   -0.000453|
|         714|  -12.765222|  -12.211891|    0.000553|   -0.000453|
|         715|  -12.771924|  -12.218340|    0.000553|   -0.000453|
|         716|  -12.778585|  -12.224766|    0.000553|   -0.000453|
|         717|  -12.785218|  -12.231162|    0.000553|   -0.000453|
|         718|  -12.791793|  -12.237528|    0.000553|   -0.000453|
|         719|  -12.798335|  -12.243864|    0.000553|   -0.000453|
|         720|  -12.804839|  -12.250173|    0.000553|   -0.000453|
|         721|  -12.811333|  -12.256480|    0.000553|   -0.000453|
|         722|  -12.817758|  -12.262736|    0.000553|   -0.000453|
|         723|  -12.824163|  -12.268970|    0.000553|   -0.000453|
|         724|  -12.830539|  -12.275187|    0.000553|   -0.000453|
|         725|  -12.836872|  -12.281375|    0.000553|   -0.000453|
|         726|  -12.843164|  -12.287525|    0.000553|   -0.000453|
|         727|  -12.849452|  -12.293677|    0.000553|   -0.000453|
|         728|  -12.855705|  -12.299803|    0.000553|   -0.000453|
|         729|  -12.861885|  -12.305864|    0.000553|   -0.000453|
|         730|  -12.868079|  -12.311948|    0.000553|   -0.000453|
|         731|  -12.874212|  -12.317978|    0.000553|   -0.000453|
|         732|  -12.880348|  -12.324014|    0.000553|   -0.000453|
|         733|  -12.886455|  -12.330030|    0.000553|   -0.000453|
|         734|  -12.892521|  -12.336009|    0.000553|   -0.000453|
|         735|  -12.898570|  -12.341979|    0.000553|   -0.000453|
|         736|  -12.904565|  -12.347901|    0.000553|   -0.000453|
|         737|  -12.910570|  -12.353835|    0.000553|   -0.000453|
|         738|  -12.916541|  -12.359743|    0.000553|   -0.000453|
|         739|  -12.922486|  -12.365631|    0.000553|   -0.000453|
|         740|  -12.928404|  -12.371493|    0.000553|   -0.000453|
|         741|  -12.934296|  -12.377340|    0.000553|   -0.000453|
|         742|  -12.940163|  -12.383156|    0.000553|   -0.000453|
|         743|  -12.946023|  -12.388977|    0.000553|   -0.000453|
|         744|  -12.951873|  -12.394791|    0.000553|   -0.000453|
|         745|  -12.957674|  -12.400561|    0.000553|   -0.000453|
|         746|  -12.963469|  -12.406326|    0.000553|   -0.000453|
|         747|  -12.969220|  -12.412048|    0.000553|   -0.000453|
|         748|  -12.975008|  -12.417817|    0.000553|   -0.000453|
|         749|  -12.980728|  -12.423519|    0.000553|   -0.000453|
|         750|  -12.986420|  -12.429189|    0.000553|   -0.000453|
+-----------------------------------------------------------------------+
|        File Writing Summary       |              Filename             |
+-----------------------------------------------------------------------+
|SU2 restart                        |restart_flow.dat                   |
|Paraview                           |flow.vtu                           |
|Paraview surface                   |surface_flow.vtu                   |
|CSV file                           |surface_flow.csv                   |
+-----------------------------------------------------------------------+
+----------------------------------------------------------------+
|  Inner_Iter|    rms[Rho]|   rms[RhoE]|          CL|          CD|
+----------------------------------------------------------------+
|         751|  -12.992148|  -12.434904|    0.000553|   -0.000453|
|         752|  -12.997823|  -12.440576|    0.000553|   -0.000453|
|         753|  -13.003502|  -12.446240|    0.000553|   -0.000453|

----------------------------- Solver Exit -------------------------------
All convergence criteria satisfied.
+-----------------------------------------------------------------------+
|      Convergence Field     |     Value    |   Criterion  |  Converged |
+-----------------------------------------------------------------------+
|                    rms[Rho]|      -13.0035|         < -13|         Yes|
+-----------------------------------------------------------------------+
-------------------------------------------------------------------------
+-----------------------------------------------------------------------+
|        File Writing Summary       |              Filename             |
+-----------------------------------------------------------------------+
|SU2 restart                        |restart_flow.dat                   |
|Paraview                           |flow.vtu                           |
|Paraview surface                   |surface_flow.vtu                   |
|CSV file                           |surface_flow.csv                   |
+-----------------------------------------------------------------------+

------------------------- Solver Postprocessing -------------------------
Deleted CNumerics container.
Deleted CIntegration container.
Deleted CSolver container.
Deleted CIteration container.
Deleted CInterpolator container.
Deleted CInterface container.
Deleted CGeometry container.
Deleted CFreeFormDefBox class.
Deleted CSurfaceMovement class.
Deleted CVolumetricMovement class.
Deleted CConfig container.
Deleted nInst container.
Deleted COutput class.
-------------------------------------------------------------------------

------------------------- Exit Success (SU2_CFD) ------------------------

