
-------------------------------------------------------------------------
|    ___ _   _ ___                                                      |
|   / __| | | |_  )   Release 7.0.5 "Blackbird"                         |
|   \__ \ |_| |/ /                                                      |
|   |___/\___//___|   Suite (Computational Fluid Dynamics Code)         |
|                                                                       |
-------------------------------------------------------------------------
| SU2 Project Website: https://su2code.github.io                        |
|                                                                       |
| The SU2 Project is maintained by the SU2 Foundation                   |
| (http://su2foundation.org)                                            |
-------------------------------------------------------------------------
| Copyright 2012-2020, SU2 Contributors                                 |
|                                                                       |
| SU2 is free software; you can redistribute it and/or                  |
| modify it under the terms of the GNU Lesser General Public            |
| License as published by the Free Software Foundation; either          |
| version 2.1 of the License, or (at your option) any later version.    |
|                                                                       |
| SU2 is distributed in the hope that it will be useful,                |
| but WITHOUT ANY WARRANTY; without even the implied warranty of        |
| MERCHANTABILITY or FITNESS FOR A PARTICULAR PURPOSE. See the GNU      |
| Lesser General Public License for more details.                       |
|                                                                       |
| You should have received a copy of the GNU Lesser General Public      |
| License along with SU2. If not, see <http://www.gnu.org/licenses/>.   |
-------------------------------------------------------------------------

Parsing config file for zone 0

----------------- Physical Case Definition ( Zone 0 ) -------------------
Compressible Euler equations.
Mach number: 0.15.
Angle of attack (AoA): 0 deg, and angle of sideslip (AoS): 0 deg.
No restart solution, use the values at infinity (freestream).
Non-Dimensional simulation (P=1.0, Rho=1.0, T=1.0 at the farfield).
The reference area is 1 m^2.
The semi-span will be computed using the max y(3D) value.
The reference length is 1 m.
Reference origin for moment evaluation is (0.25, 0, 0).
Surface(s) where the force coefficients are evaluated: airfoil.

Surface(s) plotted in the output file: airfoil.
Surface(s) affected by the design variables: airfoil.
Input mesh file name: mesh_NACA0012_inv_deform.su2

--------------- Space Numerical Integration ( Zone 0 ) ------------------
Jameson-Schmidt-Turkel scheme (2nd order in space) for the flow inviscid terms.
JST viscous coefficients (2nd & 4th): 0.5, 0.02.
The method includes a grid stretching correction (p = 0.3).
Gradient for upwind reconstruction: Green-Gauss.
Gradient for viscous and source terms: Green-Gauss.

--------------- Time Numerical Integration  ( Zone 0 ) ------------------
Local time stepping (steady state simulation).
Euler implicit method for the flow equations.
FGMRES is used for solving the linear system.
Using a LU-SGS preconditioning.
Convergence criteria of the linear solver: 0.0001.
Max number of linear iterations: 2.
V Multigrid Cycle, with 2 multigrid levels.
Damping factor for the residual restriction: 1.
Damping factor for the correction prolongation: 1.
No CFL adaptation.
+-------------------------------------------+
|  MG Level| Presmooth|PostSmooth|CorrectSmo|
+-------------------------------------------+
|         0|         1|         0|         0|
|         1|         2|         0|         0|
|         2|         3|         0|         0|
+-------------------------------------------+
Courant-Friedrichs-Lewy number:       10

------------------ Convergence Criteria  ( Zone 0 ) ---------------------
Maximum number of solver subiterations: 1000.
Begin convergence monitoring at iteration 10.
Residual minimum value: 1e-13.
Cauchy series min. value: 1e-06.
Number of Cauchy elements: 100.
Begin windowed time average at iteration 0.

-------------------- Output Information ( Zone 0 ) ----------------------
Writing solution files every 250 iterations.
Writing the convergence history file every 1 inner iterations.
Writing the screen convergence history every 1 inner iterations.
The tabular file format is CSV (.csv).
Convergence history file name: history_direct.
Forces breakdown file name: forces_breakdown.dat.
Surface file name: surface_flow.
Volume file name: flow.
Restart file name: restart_flow.dat.

------------- Config File Boundary Information ( Zone 0 ) ---------------
+-----------------------------------------------------------------------+
|                        Marker Type|                        Marker Name|
+-----------------------------------------------------------------------+
|                         Euler wall|                            airfoil|
+-----------------------------------------------------------------------+
|                          Far-field|                           farfield|
+-----------------------------------------------------------------------+

-------------------- Output Preprocessing ( Zone 0 ) --------------------
Screen output fields: INNER_ITER, RMS_DENSITY, RMS_ENERGY, LIFT, DRAG
History output group(s): ITER, RMS_RES, AERO_COEFF
Convergence field(s): RMS_DENSITY
Warning: No (valid) fields chosen for time convergence monitoring. Time convergence monitoring inactive.
Volume output fields: COORDINATES, SOLUTION, PRIMITIVE

------------------- Geometry Preprocessing ( Zone 0 ) -------------------
Two dimensional problem.
5233 grid points.
10216 volume elements.
2 surface markers.
200 boundary elements in index 0 (Marker = airfoil).
50 boundary elements in index 1 (Marker = farfield).
10216 triangles.
Setting point connectivity.
Renumbering points (Reverse Cuthill McKee Ordering).
Recomputing point connectivity.
Setting element connectivity.
Checking the numerical grid orientation.
Identifying edges and vertices.
Computing centers of gravity.
Setting the control volume structure.
Area of the computational grid: 1253.25.
Searching for the closest normal neighbors to the surfaces.
Storing a mapping from global to local point index.
Compute the surface curvature.
Max K: 7835.1. Mean K: 34.8203. Standard deviation K: 494.448.
Checking for periodicity.
Computing mesh quality statistics for the dual control volumes.
+--------------------------------------------------------------+
|           Mesh Quality Metric|        Minimum|        Maximum|
+--------------------------------------------------------------+
|    Orthogonality Angle (deg.)|        62.6722|        89.7085|
|     CV Face Area Aspect Ratio|              1|        7.18345|
|           CV Sub-Volume Ratio|        1.00285|        6.47829|
+--------------------------------------------------------------+
Setting the multigrid structure.
+-------------------------------------------+
|  MG Level|       CVs|Aggl. Rate|       CFL|
+-------------------------------------------+
|         0|      5233|    1/1.00|        10|
|         1|      1533|    1/3.41|   8.11871|
|         2|       443|    1/3.46|    6.5465|
+-------------------------------------------+
Finding max control volume width.
Wetted area = 2.03922 m.
Area projection in the x-plane = 0.119982 m, y-plane = 0.999845 m.
Max. coordinate in the x-direction = 1 m, y-direction = 0.0600008 m.
Min. coordinate in the x-direction = 0 m, y-direction = -0.060013 m.
Checking if Euler & Symmetry markers are straight/plane:
Boundary marker airfoil is NOT a single straight.
Computing wall distances.

-------------------- Solver Preprocessing ( Zone 0 ) --------------------
Inviscid flow: Computing density based on free-stream
temperature and pressure using the ideal gas law.
Force coefficients computed using free-stream values.

-- Models:
+------------------------------------------------------------------------------+
|          Viscosity Model|        Conductivity Model|              Fluid Model|
+------------------------------------------------------------------------------+
|                        -|                         -|             STANDARD_AIR|
+------------------------------------------------------------------------------+
-- Fluid properties:
+------------------------------------------------------------------------------+
|                  Name|    Dim. value|    Ref. value|      Unit|Non-dim. value|
+------------------------------------------------------------------------------+
|          Gas Constant|       287.058|       287.058|  N.m/kg.K|             1|
|      Spec. Heat Ratio|             -|             -|         -|           1.4|
+------------------------------------------------------------------------------+
-- Initial and free-stream conditions:
+------------------------------------------------------------------------------+
|                  Name|    Dim. value|    Ref. value|      Unit|Non-dim. value|
+------------------------------------------------------------------------------+
|       Static Pressure|        101325|        101325|        Pa|             1|
|               Density|       1.22498|       1.22498|    kg/m^3|             1|
|           Temperature|        288.15|        288.15|         K|             1|
|          Total Energy|        208092|       82715.8|   m^2/s^2|       2.51575|
|            Velocity-X|       51.0446|       287.603|       m/s|      0.177482|
|            Velocity-Y|             0|       287.603|       m/s|             0|
|    Velocity Magnitude|       51.0446|       287.603|       m/s|      0.177482|
+------------------------------------------------------------------------------+
|           Mach Number|             -|             -|         -|          0.15|
+------------------------------------------------------------------------------+
Initialize Jacobian structure (Euler). MG level: 0.
Initialize Jacobian structure (Euler). MG level: 1.
Initialize Jacobian structure (Euler). MG level: 2.

------------------- Numerics Preprocessing ( Zone 0 ) -------------------

----------------- Integration Preprocessing ( Zone 0 ) ------------------

------------------- Iteration Preprocessing ( Zone 0 ) ------------------
Euler/Navier-Stokes/RANS fluid iteration.

------------------------------ Begin Solver -----------------------------

Simulation Run using the Single-zone Driver
+----------------------------------------------------------------+
|  Inner_Iter|    rms[Rho]|   rms[RhoE]|          CL|          CD|
+----------------------------------------------------------------+
|           0|   -4.318730|   -3.772712|   -0.059985|    0.952304|
|           1|   -4.442066|   -3.889049|    0.112216|   -0.061967|
|           2|   -4.554434|   -4.004735|    0.033359|   -0.171005|
|           3|   -4.543070|   -3.987076|   -0.053415|    0.003702|
|           4|   -4.471806|   -3.923072|   -0.046741|    0.117893|
|           5|   -4.577321|   -4.027766|    0.032323|    0.056658|
|           6|   -4.560389|   -4.009650|    0.047763|   -0.046401|
|           7|   -4.677352|   -4.129763|   -0.016660|   -0.034789|
|           8|   -4.746441|   -4.195294|   -0.036905|    0.041285|
|           9|   -4.818314|   -4.270869|    0.008882|    0.039318|
|          10|   -5.032076|   -4.479756|    0.030361|   -0.020761|
|          11|   -4.986580|   -4.437642|    0.001620|   -0.025959|
|          12|   -5.225710|   -4.677502|   -0.020198|    0.016517|
|          13|   -5.199266|   -4.647881|   -0.006324|    0.023595|
|          14|   -5.311121|   -4.764382|    0.012538|   -0.008393|
|          15|   -5.457657|   -4.904605|    0.008232|   -0.018276|
|          16|   -5.442898|   -4.895071|   -0.006411|    0.004674|
|          17|   -5.681815|   -5.131951|   -0.007712|    0.015613|
|          18|   -5.639446|   -5.089443|    0.002060|   -0.000043|
|          19|   -5.786629|   -5.241425|    0.005739|   -0.010854|
|          20|   -5.803494|   -5.255181|    0.000367|   -0.001449|
|          21|   -5.847632|   -5.303143|   -0.003178|    0.007691|
|          22|   -5.943546|   -5.393975|   -0.000270|    0.002332|
|          23|   -5.857463|   -5.312457|    0.002463|   -0.004508|
|          24|   -6.025053|   -5.478183|    0.001166|   -0.001770|
|          25|   -5.914226|   -5.367767|   -0.000487|    0.002973|
|          26|   -6.048100|   -5.504431|    0.000108|    0.001630|
|          27|   -6.036389|   -5.490085|    0.001084|   -0.001700|
|          28|   -6.057988|   -5.515092|    0.000743|   -0.001165|
|          29|   -6.171448|   -5.630894|    0.000128|    0.001136|
|          30|   -6.134948|   -5.594932|    0.000214|    0.000967|
|          31|   -6.255039|   -5.717075|    0.000575|   -0.000764|
|          32|   -6.254123|   -5.712099|    0.000545|   -0.000986|
|          33|   -6.290215|   -5.753598|    0.000324|    0.000232|
|          34|   -6.346259|   -5.814785|    0.000343|    0.000714|
|          35|   -6.353707|   -5.820787|    0.000480|   -0.000070|
|          36|   -6.391860|   -5.857431|    0.000535|   -0.000712|
|          37|   -6.405251|   -5.870160|    0.000544|   -0.000413|
|          38|   -6.420918|   -5.887912|    0.000590|    0.000217|
|          39|   -6.442955|   -5.911034|    0.000692|    0.000283|
|          40|   -6.457012|   -5.924722|    0.000720|   -0.000158|
|          41|   -6.474728|   -5.942300|    0.000674|   -0.000392|
|          42|   -6.486533|   -5.954063|    0.000678|   -0.000177|
|          43|   -6.504000|   -5.971755|    0.000768|    0.000074|
|          44|   -6.529569|   -5.997323|    0.000839|    0.000031|
|          45|   -6.545001|   -6.012319|    0.000799|   -0.000164|
|          46|   -6.565936|   -6.033534|    0.000700|   -0.000217|
|          47|   -6.588698|   -6.056345|    0.000664|   -0.000108|
|          48|   -6.606191|   -6.073495|    0.000717|   -0.000040|
|          49|   -6.627889|   -6.095858|    0.000760|   -0.000098|
|          50|   -6.644572|   -6.113065|    0.000730|   -0.000179|
|          51|   -6.660087|   -6.128511|    0.000663|   -0.000177|
|          52|   -6.681845|   -6.150149|    0.000632|   -0.000122|
|          53|   -6.702717|   -6.170647|    0.000662|   -0.000101|
|          54|   -6.721404|   -6.189248|    0.000709|   -0.000139|
|          55|   -6.739620|   -6.207535|    0.000722|   -0.000179|
|          56|   -6.757963|   -6.225591|    0.000706|   -0.000172|
|          57|   -6.778707|   -6.245804|    0.000701|   -0.000137|
|          58|   -6.800731|   -6.267204|    0.000725|   -0.000123|
|          59|   -6.821849|   -6.287677|    0.000761|   -0.000142|
|          60|   -6.842335|   -6.307517|    0.000783|   -0.000163|
|          61|   -6.863024|   -6.327541|    0.000785|   -0.000160|
|          62|   -6.884184|   -6.348042|    0.000785|   -0.000143|
|          63|   -6.905850|   -6.369041|    0.000794|   -0.000134|
|          64|   -6.928035|   -6.390554|    0.000808|   -0.000142|
|          65|   -6.950955|   -6.412951|    0.000814|   -0.000152|
|          66|   -6.974150|   -6.435919|    0.000811|   -0.000153|
|          67|   -6.996853|   -6.458681|    0.000806|   -0.000147|
|          68|   -7.019339|   -6.481428|    0.000806|   -0.000146|
|          69|   -7.041636|   -6.504187|    0.000810|   -0.000151|
|          70|   -7.063345|   -6.526713|    0.000813|   -0.000156|
|          71|   -7.084554|   -6.549196|    0.000813|   -0.000157|
|          72|   -7.105441|   -6.571675|    0.000814|   -0.000156|
|          73|   -7.126285|   -6.594142|    0.000819|   -0.000156|
|          74|   -7.147446|   -6.616805|    0.000827|   -0.000160|
|          75|   -7.168990|   -6.639827|    0.000837|   -0.000163|
|          76|   -7.191052|   -6.663553|    0.000847|   -0.000163|
|          77|   -7.213808|   -6.688256|    0.000856|   -0.000162|
|          78|   -7.236885|   -6.713484|    0.000866|   -0.000163|
|          79|   -7.259618|   -6.738475|    0.000877|   -0.000164|
|          80|   -7.281686|   -6.762935|    0.000888|   -0.000166|
|          81|   -7.303176|   -6.787064|    0.000897|   -0.000166|
|          82|   -7.324281|   -6.811116|    0.000905|   -0.000165|
|          83|   -7.345147|   -6.835210|    0.000910|   -0.000165|
|          84|   -7.365958|   -6.859512|    0.000914|   -0.000166|
|          85|   -7.386947|   -6.884278|    0.000916|   -0.000166|
|          86|   -7.408275|   -6.909661|    0.000917|   -0.000167|
|          87|   -7.429993|   -6.935663|    0.000917|   -0.000166|
|          88|   -7.451997|   -6.962131|    0.000914|   -0.000167|
|          89|   -7.473968|   -6.988669|    0.000911|   -0.000167|
|          90|   -7.495482|   -7.014701|    0.000907|   -0.000168|
|          91|   -7.516207|   -7.039678|    0.000902|   -0.000168|
|          92|   -7.536000|   -7.063277|    0.000897|   -0.000169|
|          93|   -7.554927|   -7.085521|    0.000892|   -0.000169|
|          94|   -7.573199|   -7.106729|    0.000887|   -0.000170|
|          95|   -7.591123|   -7.127390|    0.000881|   -0.000171|
|          96|   -7.609035|   -7.148031|    0.000876|   -0.000172|
|          97|   -7.627157|   -7.169029|    0.000870|   -0.000173|
|          98|   -7.645505|   -7.190486|    0.000865|   -0.000173|
|          99|   -7.663938|   -7.212274|    0.000859|   -0.000174|
|         100|   -7.682287|   -7.234173|    0.000853|   -0.000175|
|         101|   -7.700425|   -7.255961|    0.000847|   -0.000176|
|         102|   -7.718253|   -7.277435|    0.000840|   -0.000176|
|         103|   -7.735721|   -7.298469|    0.000833|   -0.000177|
|         104|   -7.752876|   -7.319117|    0.000825|   -0.000177|
|         105|   -7.769873|   -7.339624|    0.000816|   -0.000178|
|         106|   -7.786894|   -7.360308|    0.000808|   -0.000178|
|         107|   -7.804061|   -7.381426|    0.000798|   -0.000179|
|         108|   -7.821378|   -7.403065|    0.000789|   -0.000179|
|         109|   -7.838718|   -7.425089|    0.000779|   -0.000179|
|         110|   -7.855853|   -7.447139|    0.000768|   -0.000180|
|         111|   -7.872518|   -7.468724|    0.000758|   -0.000180|
|         112|   -7.888493|   -7.489367|    0.000748|   -0.000180|
|         113|   -7.903664|   -7.508749|    0.000737|   -0.000180|
|         114|   -7.918056|   -7.526813|    0.000727|   -0.000181|
|         115|   -7.931819|   -7.543778|    0.000718|   -0.000181|
|         116|   -7.945180|   -7.560061|    0.000708|   -0.000181|
|         117|   -7.958365|   -7.576134|    0.000699|   -0.000182|
|         118|   -7.971534|   -7.592386|    0.000691|   -0.000182|
|         119|   -7.984757|   -7.609034|    0.000682|   -0.000182|
|         120|   -7.998007|   -7.626104|    0.000674|   -0.000183|
|         121|   -8.011187|   -7.643447|    0.000667|   -0.000183|
|         122|   -8.024162|   -7.660805|    0.000659|   -0.000183|
|         123|   -8.036808|   -7.677895|    0.000652|   -0.000184|
|         124|   -8.049047|   -7.694517|    0.000645|   -0.000184|
|         125|   -8.060872|   -7.710604|    0.000639|   -0.000184|
|         126|   -8.072333|   -7.726228|    0.000632|   -0.000185|
|         127|   -8.083508|   -7.741540|    0.000625|   -0.000185|
|         128|   -8.094471|   -7.756701|    0.000619|   -0.000185|
|         129|   -8.105266|   -7.771804|    0.000612|   -0.000186|
|         130|   -8.115890|   -7.786838|    0.000606|   -0.000186|
|         131|   -8.126309|   -7.801683|    0.000599|   -0.000186|
|         132|   -8.136461|   -7.816137|    0.000593|   -0.000186|
|         133|   -8.146293|   -7.829979|    0.000586|   -0.000186|
|         134|   -8.155771|   -7.843030|    0.000580|   -0.000187|
|         135|   -8.164902|   -7.855207|    0.000574|   -0.000187|
|         136|   -8.173732|   -7.866548|    0.000567|   -0.000187|
|         137|   -8.182337|   -7.877193|    0.000561|   -0.000187|
|         138|   -8.190798|   -7.887339|    0.000555|   -0.000187|
|         139|   -8.199193|   -7.897186|    0.000550|   -0.000187|
|         140|   -8.207574|   -7.906897|    0.000544|   -0.000187|
|         141|   -8.215968|   -7.916566|    0.000539|   -0.000187|
|         142|   -8.224373|   -7.926224|    0.000533|   -0.000188|
|         143|   -8.232768|   -7.935844|    0.000528|   -0.000188|
|         144|   -8.241125|   -7.945374|    0.000523|   -0.000188|
|         145|   -8.249416|   -7.954760|    0.000518|   -0.000188|
|         146|   -8.257624|   -7.963962|    0.000513|   -0.000188|
|         147|   -8.265742|   -7.972966|    0.000508|   -0.000188|
|         148|   -8.273774|   -7.981777|    0.000503|   -0.000188|
|         149|   -8.281730|   -7.990409|    0.000498|   -0.000188|
|         150|   -8.289620|   -7.998875|    0.000494|   -0.000188|
|         151|   -8.297450|   -8.007169|    0.000489|   -0.000188|
|         152|   -8.305217|   -8.015272|    0.000484|   -0.000189|
|         153|   -8.312916|   -8.023152|    0.000480|   -0.000189|
|         154|   -8.320536|   -8.030780|    0.000475|   -0.000189|
|         155|   -8.328069|   -8.038134|    0.000470|   -0.000189|
|         156|   -8.335509|   -8.045215|    0.000466|   -0.000189|
|         157|   -8.342856|   -8.052048|    0.000462|   -0.000189|
|         158|   -8.350119|   -8.058679|    0.000457|   -0.000189|
|         159|   -8.357306|   -8.065165|    0.000453|   -0.000189|
|         160|   -8.364432|   -8.071566|    0.000449|   -0.000189|
|         161|   -8.371507|   -8.077934|    0.000445|   -0.000189|
|         162|   -8.378540|   -8.084303|    0.000441|   -0.000189|
|         163|   -8.385534|   -8.090691|    0.000437|   -0.000189|
|         164|   -8.392486|   -8.097100|    0.000434|   -0.000189|
|         165|   -8.399393|   -8.103518|    0.000430|   -0.000189|
|         166|   -8.406248|   -8.109929|    0.000426|   -0.000189|
|         167|   -8.413044|   -8.116318|    0.000423|   -0.000189|
|         168|   -8.419775|   -8.122672|    0.000420|   -0.000189|
|         169|   -8.426439|   -8.128988|    0.000416|   -0.000189|
|         170|   -8.433035|   -8.135267|    0.000413|   -0.000189|
|         171|   -8.439565|   -8.141513|    0.000410|   -0.000189|
|         172|   -8.446029|   -8.147732|    0.000407|   -0.000189|
|         173|   -8.452430|   -8.153928|    0.000404|   -0.000189|
|         174|   -8.458770|   -8.160105|    0.000401|   -0.000189|
|         175|   -8.465048|   -8.166261|    0.000398|   -0.000189|
|         176|   -8.471264|   -8.172395|    0.000395|   -0.000189|
|         177|   -8.477418|   -8.178503|    0.000393|   -0.000189|
|         178|   -8.483510|   -8.184586|    0.000390|   -0.000189|
|         179|   -8.489541|   -8.190647|    0.000387|   -0.000189|
|         180|   -8.495513|   -8.196691|    0.000385|   -0.000189|
|         181|   -8.501427|   -8.202726|    0.000382|   -0.000189|
|         182|   -8.507288|   -8.208764|    0.000380|   -0.000189|
|         183|   -8.513098|   -8.214812|    0.000377|   -0.000189|
|         184|   -8.518861|   -8.220881|    0.000375|   -0.000188|
|         185|   -8.524580|   -8.226975|    0.000373|   -0.000188|
|         186|   -8.530257|   -8.233100|    0.000371|   -0.000188|
|         187|   -8.535893|   -8.239254|    0.000369|   -0.000188|
|         188|   -8.541489|   -8.245439|    0.000367|   -0.000188|
|         189|   -8.547047|   -8.251650|    0.000365|   -0.000188|
|         190|   -8.552567|   -8.257888|    0.000363|   -0.000188|
|         191|   -8.558050|   -8.264148|    0.000362|   -0.000188|
|         192|   -8.563497|   -8.270431|    0.000360|   -0.000188|
|         193|   -8.568912|   -8.276736|    0.000359|   -0.000188|
|         194|   -8.574295|   -8.283064|    0.000357|   -0.000188|
|         195|   -8.579650|   -8.289415|    0.000356|   -0.000188|
|         196|   -8.584979|   -8.295790|    0.000354|   -0.000188|
|         197|   -8.590284|   -8.302190|    0.000353|   -0.000188|
|         198|   -8.595568|   -8.308617|    0.000352|   -0.000188|
|         199|   -8.600833|   -8.315071|    0.000351|   -0.000188|
|         200|   -8.606082|   -8.321553|    0.000349|   -0.000188|
|         201|   -8.611317|   -8.328065|    0.000348|   -0.000188|
|         202|   -8.616541|   -8.334608|    0.000347|   -0.000187|
|         203|   -8.621755|   -8.341185|    0.000346|   -0.000187|
|         204|   -8.626964|   -8.347797|    0.000346|   -0.000187|
|         205|   -8.632169|   -8.354447|    0.000345|   -0.000187|
|         206|   -8.637372|   -8.361136|    0.000344|   -0.000187|
|         207|   -8.642578|   -8.367866|    0.000343|   -0.000187|
|         208|   -8.647787|   -8.374639|    0.000343|   -0.000187|
|         209|   -8.653002|   -8.381454|    0.000342|   -0.000187|
|         210|   -8.658225|   -8.388313|    0.000341|   -0.000187|
|         211|   -8.663459|   -8.395214|    0.000341|   -0.000187|
|         212|   -8.668705|   -8.402157|    0.000340|   -0.000187|
|         213|   -8.673965|   -8.409141|    0.000340|   -0.000187|
|         214|   -8.679242|   -8.416167|    0.000340|   -0.000187|
|         215|   -8.684536|   -8.423233|    0.000339|   -0.000187|
|         216|   -8.689850|   -8.430339|    0.000339|   -0.000187|
|         217|   -8.695185|   -8.437485|    0.000339|   -0.000187|
|         218|   -8.700545|   -8.444671|    0.000339|   -0.000186|
|         219|   -8.705930|   -8.451898|    0.000338|   -0.000186|
|         220|   -8.711342|   -8.459166|    0.000338|   -0.000186|
|         221|   -8.716784|   -8.466477|    0.000338|   -0.000186|
|         222|   -8.722257|   -8.473830|    0.000338|   -0.000186|
|         223|   -8.727762|   -8.481226|    0.000338|   -0.000186|
|         224|   -8.733302|   -8.488665|    0.000338|   -0.000186|
|         225|   -8.738877|   -8.496149|    0.000338|   -0.000186|
|         226|   -8.744490|   -8.503677|    0.000339|   -0.000186|
|         227|   -8.750141|   -8.511251|    0.000339|   -0.000186|
|         228|   -8.755832|   -8.518870|    0.000339|   -0.000186|
|         229|   -8.761563|   -8.526534|    0.000339|   -0.000186|
|         230|   -8.767336|   -8.534244|    0.000339|   -0.000186|
|         231|   -8.773151|   -8.541998|    0.000340|   -0.000186|
|         232|   -8.779009|   -8.549796|    0.000340|   -0.000186|
|         233|   -8.784910|   -8.557638|    0.000340|   -0.000186|
|         234|   -8.790856|   -8.565524|    0.000341|   -0.000186|
|         235|   -8.796847|   -8.573454|    0.000341|   -0.000185|
|         236|   -8.802882|   -8.581427|    0.000342|   -0.000185|
|         237|   -8.808964|   -8.589444|    0.000342|   -0.000185|
|         238|   -8.815092|   -8.597503|    0.000342|   -0.000185|
|         239|   -8.821267|   -8.605605|    0.000343|   -0.000185|
|         240|   -8.827489|   -8.613751|    0.000343|   -0.000185|
|         241|   -8.833758|   -8.621939|    0.000344|   -0.000185|
|         242|   -8.840075|   -8.630171|    0.000345|   -0.000185|
|         243|   -8.846441|   -8.638447|    0.000345|   -0.000185|
|         244|   -8.852855|   -8.646766|    0.000346|   -0.000185|
|         245|   -8.859318|   -8.655128|    0.000346|   -0.000185|
|         246|   -8.865831|   -8.663534|    0.000347|   -0.000185|
|         247|   -8.872393|   -8.671984|    0.000348|   -0.000185|
|         248|   -8.879005|   -8.680477|    0.000348|   -0.000185|
|         249|   -8.885668|   -8.689014|    0.000349|   -0.000185|
|         250|   -8.892380|   -8.697593|    0.000350|   -0.000185|
+-----------------------------------------------------------------------+
|        File Writing Summary       |              Filename             |
+-----------------------------------------------------------------------+
|SU2 restart                        |restart_flow.dat                   |
|Paraview                           |flow.vtu                           |
|Paraview surface                   |surface_flow.vtu                   |
|CSV file                           |surface_flow.csv                   |
+-----------------------------------------------------------------------+
+----------------------------------------------------------------+
|  Inner_Iter|    rms[Rho]|   rms[RhoE]|          CL|          CD|
+----------------------------------------------------------------+
|         251|   -8.899144|   -8.706216|    0.000350|   -0.000185|
|         252|   -8.905958|   -8.714881|    0.000351|   -0.000185|
|         253|   -8.912823|   -8.723588|    0.000352|   -0.000185|
|         254|   -8.919739|   -8.732337|    0.000352|   -0.000185|
|         255|   -8.926705|   -8.741127|    0.000353|   -0.000184|
|         256|   -8.933723|   -8.749958|    0.000354|   -0.000184|
|         257|   -8.940792|   -8.758831|    0.000355|   -0.000184|
|         258|   -8.947912|   -8.767744|    0.000356|   -0.000184|
|         259|   -8.955083|   -8.776697|    0.000356|   -0.000184|
|         260|   -8.962306|   -8.785690|    0.000357|   -0.000184|
|         261|   -8.969579|   -8.794724|    0.000358|   -0.000184|
|         262|   -8.976904|   -8.803798|    0.000359|   -0.000184|
|         263|   -8.984280|   -8.812913|    0.000360|   -0.000184|
|         264|   -8.991707|   -8.822067|    0.000360|   -0.000184|
|         265|   -8.999185|   -8.831262|    0.000361|   -0.000184|
|         266|   -9.006715|   -8.840497|    0.000362|   -0.000184|
|         267|   -9.014296|   -8.849772|    0.000363|   -0.000184|
|         268|   -9.021928|   -8.859086|    0.000364|   -0.000184|
|         269|   -9.029611|   -8.868440|    0.000365|   -0.000184|
|         270|   -9.037345|   -8.877833|    0.000365|   -0.000184|
|         271|   -9.045130|   -8.887265|    0.000366|   -0.000184|
|         272|   -9.052967|   -8.896736|    0.000367|   -0.000184|
|         273|   -9.060854|   -8.906245|    0.000368|   -0.000184|
|         274|   -9.068792|   -8.915792|    0.000369|   -0.000184|
|         275|   -9.076781|   -8.925376|    0.000370|   -0.000184|
|         276|   -9.084820|   -8.934997|    0.000370|   -0.000184|
|         277|   -9.092911|   -8.944656|    0.000371|   -0.000184|
|         278|   -9.101051|   -8.954351|    0.000372|   -0.000184|
|         279|   -9.109243|   -8.964082|    0.000373|   -0.000184|
|         280|   -9.117484|   -8.973850|    0.000374|   -0.000184|
|         281|   -9.125776|   -8.983654|    0.000375|   -0.000184|
|         282|   -9.134118|   -8.993493|    0.000376|   -0.000184|
|         283|   -9.142511|   -9.003369|    0.000376|   -0.000184|
|         284|   -9.150953|   -9.013281|    0.000377|   -0.000183|
|         285|   -9.159445|   -9.023228|    0.000378|   -0.000183|
|         286|   -9.167988|   -9.033211|    0.000379|   -0.000183|
|         287|   -9.176580|   -9.043230|    0.000380|   -0.000183|
|         288|   -9.185221|   -9.053284|    0.000381|   -0.000183|
|         289|   -9.193913|   -9.063373|    0.000382|   -0.000183|
|         290|   -9.202654|   -9.073498|    0.000382|   -0.000183|
|         291|   -9.211444|   -9.083657|    0.000383|   -0.000183|
|         292|   -9.220284|   -9.093851|    0.000384|   -0.000183|
|         293|   -9.229173|   -9.104079|    0.000385|   -0.000183|
|         294|   -9.238111|   -9.114341|    0.000386|   -0.000183|
|         295|   -9.247099|   -9.124636|    0.000386|   -0.000183|
|         296|   -9.256135|   -9.134964|    0.000387|   -0.000183|
|         297|   -9.265220|   -9.145325|    0.000388|   -0.000183|
|         298|   -9.274354|   -9.155718|    0.000389|   -0.000183|
|         299|   -9.283537|   -9.166143|    0.000390|   -0.000183|
|         300|   -9.292768|   -9.176599|    0.000390|   -0.000183|
|         301|   -9.302048|   -9.187087|    0.000391|   -0.000183|
|         302|   -9.311376|   -9.197605|    0.000392|   -0.000183|
|         303|   -9.320753|   -9.208155|    0.000393|   -0.000183|
|         304|   -9.330178|   -9.218735|    0.000393|   -0.000183|
|         305|   -9.339651|   -9.229346|    0.000394|   -0.000183|
|         306|   -9.349172|   -9.239986|    0.000395|   -0.000183|
|         307|   -9.358741|   -9.250657|    0.000396|   -0.000183|
|         308|   -9.368358|   -9.261358|    0.000396|   -0.000183|
|         309|   -9.378023|   -9.272088|    0.000397|   -0.000183|
|         310|   -9.387735|   -9.282848|    0.000398|   -0.000183|
|         311|   -9.397495|   -9.293637|    0.000399|   -0.000183|
|         312|   -9.407303|   -9.304455|    0.000399|   -0.000183|
|         313|   -9.417159|   -9.315302|    0.000400|   -0.000183|
|         314|   -9.427062|   -9.326177|    0.000401|   -0.000183|
|         315|   -9.437012|   -9.337079|    0.000401|   -0.000183|
|         316|   -9.447010|   -9.348009|    0.000402|   -0.000183|
|         317|   -9.457054|   -9.358966|    0.000403|   -0.000183|
|         318|   -9.467146|   -9.369950|    0.000403|   -0.000183|
|         319|   -9.477285|   -9.380960|    0.000404|   -0.000183|
|         320|   -9.487471|   -9.391995|    0.000405|   -0.000183|
|         321|   -9.497704|   -9.403056|    0.000405|   -0.000183|
|         322|   -9.507984|   -9.414141|    0.000406|   -0.000183|
|         323|   -9.518310|   -9.425251|    0.000407|   -0.000183|
|         324|   -9.528683|   -9.436385|    0.000407|   -0.000183|
|         325|   -9.539102|   -9.447543|    0.000408|   -0.000183|
|         326|   -9.549568|   -9.458724|    0.000408|   -0.000183|
|         327|   -9.560080|   -9.469928|    0.000409|   -0.000183|
|         328|   -9.570639|   -9.481155|    0.000410|   -0.000183|
|         329|   -9.581244|   -9.492403|    0.000410|   -0.000183|
|         330|   -9.591895|   -9.503674|    0.000411|   -0.000183|
|         331|   -9.602591|   -9.514966|    0.000411|   -0.000183|
|         332|   -9.613334|   -9.526279|    0.000412|   -0.000183|
|         333|   -9.624123|   -9.537612|    0.000412|   -0.000183|
|         334|   -9.634957|   -9.548966|    0.000413|   -0.000183|
|         335|   -9.645837|   -9.560339|    0.000413|   -0.000183|
|         336|   -9.656762|   -9.571732|    0.000414|   -0.000183|
|         337|   -9.667733|   -9.583143|    0.000414|   -0.000183|
|         338|   -9.678749|   -9.594572|    0.000415|   -0.000183|
|         339|   -9.689810|   -9.606019|    0.000416|   -0.000183|
|         340|   -9.700916|   -9.617483|    0.000416|   -0.000183|
|         341|   -9.712067|   -9.628963|    0.000416|   -0.000183|
|         342|   -9.723262|   -9.640460|    0.000417|   -0.000183|
|         343|   -9.734503|   -9.651972|    0.000417|   -0.000183|
|         344|   -9.745787|   -9.663499|    0.000418|   -0.000183|
|         345|   -9.757116|   -9.675040|    0.000418|   -0.000183|
|         346|   -9.768489|   -9.686595|    0.000419|   -0.000183|
|         347|   -9.779907|   -9.698164|    0.000419|   -0.000183|
|         348|   -9.791368|   -9.709745|    0.000420|   -0.000183|
|         349|   -9.802872|   -9.721338|    0.000420|   -0.000183|
|         350|   -9.814420|   -9.732943|    0.000421|   -0.000183|
|         351|   -9.826012|   -9.744560|    0.000421|   -0.000183|
|         352|   -9.837647|   -9.756187|    0.000421|   -0.000183|
|         353|   -9.849324|   -9.767823|    0.000422|   -0.000183|
|         354|   -9.861045|   -9.779470|    0.000422|   -0.000183|
|         355|   -9.872808|   -9.791125|    0.000423|   -0.000183|
|         356|   -9.884614|   -9.802789|    0.000423|   -0.000183|
|         357|   -9.896461|   -9.814460|    0.000423|   -0.000183|
|         358|   -9.908351|   -9.826138|    0.000424|   -0.000183|
|         359|   -9.920283|   -9.837823|    0.000424|   -0.000183|
|         360|   -9.932256|   -9.849514|    0.000424|   -0.000183|
|         361|   -9.944271|   -9.861210|    0.000425|   -0.000183|
|         362|   -9.956326|   -9.872911|    0.000425|   -0.000183|
|         363|   -9.968423|   -9.884616|    0.000426|   -0.000183|
|         364|   -9.980560|   -9.896325|    0.000426|   -0.000183|
|         365|   -9.992738|   -9.908036|    0.000426|   -0.000183|
|         366|  -10.004956|   -9.919751|    0.000426|   -0.000183|
|         367|  -10.017214|   -9.931467|    0.000427|   -0.000183|
|         368|  -10.029512|   -9.943185|    0.000427|   -0.000183|
|         369|  -10.041849|   -9.954904|    0.000427|   -0.000183|
|         370|  -10.054225|   -9.966624|    0.000428|   -0.000183|
|         371|  -10.066641|   -9.978343|    0.000428|   -0.000183|
|         372|  -10.079095|   -9.990062|    0.000428|   -0.000183|
|         373|  -10.091587|  -10.001780|    0.000429|   -0.000183|
|         374|  -10.104118|  -10.013497|    0.000429|   -0.000183|
|         375|  -10.116686|  -10.025211|    0.000429|   -0.000183|
|         376|  -10.129292|  -10.036923|    0.000429|   -0.000183|
|         377|  -10.141936|  -10.048632|    0.000430|   -0.000183|
|         378|  -10.154616|  -10.060337|    0.000430|   -0.000183|
|         379|  -10.167333|  -10.072039|    0.000430|   -0.000183|
|         380|  -10.180087|  -10.083736|    0.000430|   -0.000183|
|         381|  -10.192876|  -10.095429|    0.000431|   -0.000183|
|         382|  -10.205702|  -10.107116|    0.000431|   -0.000183|
|         383|  -10.218563|  -10.118798|    0.000431|   -0.000183|
|         384|  -10.231459|  -10.130473|    0.000431|   -0.000183|
|         385|  -10.244390|  -10.142142|    0.000432|   -0.000183|
|         386|  -10.257355|  -10.153805|    0.000432|   -0.000183|
|         387|  -10.270355|  -10.165460|    0.000432|   -0.000183|
|         388|  -10.283389|  -10.177109|    0.000432|   -0.000183|
|         389|  -10.296456|  -10.188749|    0.000432|   -0.000183|
|         390|  -10.309557|  -10.200381|    0.000433|   -0.000183|
|         391|  -10.322690|  -10.212005|    0.000433|   -0.000182|
|         392|  -10.335856|  -10.223621|    0.000433|   -0.000182|
|         393|  -10.349054|  -10.235228|    0.000433|   -0.000182|
|         394|  -10.362285|  -10.246827|    0.000433|   -0.000182|
|         395|  -10.375546|  -10.258416|    0.000434|   -0.000182|
|         396|  -10.388840|  -10.269996|    0.000434|   -0.000182|
|         397|  -10.402164|  -10.281567|    0.000434|   -0.000182|
|         398|  -10.415518|  -10.293128|    0.000434|   -0.000182|
|         399|  -10.428903|  -10.304680|    0.000434|   -0.000182|
|         400|  -10.442317|  -10.316222|    0.000434|   -0.000182|
|         401|  -10.455761|  -10.327754|    0.000435|   -0.000182|
|         402|  -10.469234|  -10.339276|    0.000435|   -0.000182|
|         403|  -10.482736|  -10.350789|    0.000435|   -0.000182|
|         404|  -10.496266|  -10.362291|    0.000435|   -0.000182|
|         405|  -10.509824|  -10.373784|    0.000435|   -0.000182|
|         406|  -10.523410|  -10.385266|    0.000435|   -0.000182|
|         407|  -10.537023|  -10.396738|    0.000435|   -0.000182|
|         408|  -10.550663|  -10.408200|    0.000436|   -0.000182|
|         409|  -10.564329|  -10.419653|    0.000436|   -0.000182|
|         410|  -10.578021|  -10.431096|    0.000436|   -0.000182|
|         411|  -10.591739|  -10.442528|    0.000436|   -0.000182|
|         412|  -10.605483|  -10.453950|    0.000436|   -0.000182|
|         413|  -10.619251|  -10.465363|    0.000436|   -0.000182|
|         414|  -10.633044|  -10.476766|    0.000436|   -0.000182|
|         415|  -10.646860|  -10.488160|    0.000436|   -0.000182|
|         416|  -10.660701|  -10.499545|    0.000437|   -0.000182|
|         417|  -10.674565|  -10.510920|    0.000437|   -0.000182|
|         418|  -10.688452|  -10.522286|    0.000437|   -0.000182|
|         419|  -10.702361|  -10.533643|    0.000437|   -0.000182|
|         420|  -10.716292|  -10.544992|    0.000437|   -0.000182|
|         421|  -10.730245|  -10.556332|    0.000437|   -0.000182|
|         422|  -10.744219|  -10.567664|    0.000437|   -0.000182|
|         423|  -10.758214|  -10.578988|    0.000437|   -0.000182|
|         424|  -10.772230|  -10.590303|    0.000437|   -0.000182|
|         425|  -10.786265|  -10.601610|    0.000438|   -0.000182|
|         426|  -10.800320|  -10.612910|    0.000438|   -0.000182|
|         427|  -10.814394|  -10.624204|    0.000438|   -0.000182|
|         428|  -10.828486|  -10.635490|    0.000438|   -0.000182|
|         429|  -10.842597|  -10.646768|    0.000438|   -0.000182|
|         430|  -10.856725|  -10.658040|    0.000438|   -0.000182|
|         431|  -10.870871|  -10.669306|    0.000438|   -0.000182|
|         432|  -10.885034|  -10.680565|    0.000438|   -0.000182|
|         433|  -10.899213|  -10.691819|    0.000438|   -0.000182|
|         434|  -10.913408|  -10.703066|    0.000438|   -0.000182|
|         435|  -10.927618|  -10.714308|    0.000438|   -0.000182|
|         436|  -10.941844|  -10.725545|    0.000438|   -0.000182|
|         437|  -10.956084|  -10.736777|    0.000438|   -0.000182|
|         438|  -10.970338|  -10.748003|    0.000439|   -0.000182|
|         439|  -10.984606|  -10.759225|    0.000439|   -0.000182|
|         440|  -10.998887|  -10.770442|    0.000439|   -0.000182|
|         441|  -11.013180|  -10.781654|    0.000439|   -0.000182|
|         442|  -11.027486|  -10.792864|    0.000439|   -0.000182|
|         443|  -11.041803|  -10.804068|    0.000439|   -0.000182|
|         444|  -11.056132|  -10.815268|    0.000439|   -0.000182|
|         445|  -11.070471|  -10.826465|    0.000439|   -0.000182|
|         446|  -11.084820|  -10.837658|    0.000439|   -0.000182|
|         447|  -11.099179|  -10.848849|    0.000439|   -0.000182|
|         448|  -11.113546|  -10.860036|    0.000439|   -0.000182|
|         449|  -11.127923|  -10.871220|    0.000439|   -0.000182|
|         450|  -11.142308|  -10.882401|    0.000439|   -0.000182|
|         451|  -11.156699|  -10.893578|    0.000439|   -0.000182|
|         452|  -11.171099|  -10.904756|    0.000439|   -0.000182|
|         453|  -11.185504|  -10.915927|    0.000439|   -0.000182|
|         454|  -11.199915|  -10.927098|    0.000439|   -0.000182|
|         455|  -11.214331|  -10.938265|    0.000439|   -0.000182|
|         456|  -11.228753|  -10.949430|    0.000440|   -0.000182|
|         457|  -11.243178|  -10.960594|    0.000440|   -0.000182|
|         458|  -11.257607|  -10.971752|    0.000440|   -0.000182|
|         459|  -11.272039|  -10.982910|    0.000440|   -0.000182|
|         460|  -11.286473|  -10.994067|    0.000440|   -0.000182|
|         461|  -11.300909|  -11.005220|    0.000440|   -0.000182|
|         462|  -11.315346|  -11.016370|    0.000440|   -0.000182|
|         463|  -11.329783|  -11.027518|    0.000440|   -0.000182|
|         464|  -11.344219|  -11.038662|    0.000440|   -0.000182|
|         465|  -11.358656|  -11.049806|    0.000440|   -0.000182|
|         466|  -11.373091|  -11.060947|    0.000440|   -0.000182|
|         467|  -11.387524|  -11.072084|    0.000440|   -0.000182|
|         468|  -11.401952|  -11.083216|    0.000440|   -0.000182|
|         469|  -11.416378|  -11.094347|    0.000440|   -0.000182|
|         470|  -11.430800|  -11.105475|    0.000440|   -0.000182|
|         471|  -11.445216|  -11.116599|    0.000440|   -0.000182|
|         472|  -11.459626|  -11.127717|    0.000440|   -0.000182|
|         473|  -11.474030|  -11.138834|    0.000440|   -0.000182|
|         474|  -11.488427|  -11.149945|    0.000440|   -0.000182|
|         475|  -11.502814|  -11.161051|    0.000440|   -0.000182|
|         476|  -11.517193|  -11.172154|    0.000440|   -0.000182|
|         477|  -11.531562|  -11.183251|    0.000440|   -0.000182|
|         478|  -11.545919|  -11.194339|    0.000440|   -0.000182|
|         479|  -11.560266|  -11.205426|    0.000440|   -0.000182|
|         480|  -11.574600|  -11.216503|    0.000440|   -0.000182|
|         481|  -11.588920|  -11.227578|    0.000440|   -0.000182|
|         482|  -11.603226|  -11.238641|    0.000440|   -0.000182|
|         483|  -11.617518|  -11.249701|    0.000440|   -0.000182|
|         484|  -11.631790|  -11.260748|    0.000440|   -0.000182|
|         485|  -11.646047|  -11.271788|    0.000440|   -0.000182|
|         486|  -11.660286|  -11.282824|    0.000440|   -0.000182|
|         487|  -11.674505|  -11.293846|    0.000440|   -0.000182|
|         488|  -11.688704|  -11.304861|    0.000440|   -0.000182|
|         489|  -11.702880|  -11.315863|    0.000441|   -0.000182|
|         490|  -11.717034|  -11.326854|    0.000441|   -0.000182|
|         491|  -11.731166|  -11.337837|    0.000441|   -0.000182|
|         492|  -11.745270|  -11.348804|    0.000441|   -0.000182|
|         493|  -11.759349|  -11.359758|    0.000441|   -0.000182|
|         494|  -11.773398|  -11.370696|    0.000441|   -0.000182|
|         495|  -11.787423|  -11.381627|    0.000441|   -0.000182|
|         496|  -11.801416|  -11.392538|    0.000441|   -0.000182|
|         497|  -11.815379|  -11.403438|    0.000441|   -0.000182|
|         498|  -11.829308|  -11.414318|    0.000441|   -0.000182|
|         499|  -11.843202|  -11.425179|    0.000441|   -0.000182|
|         500|  -11.857062|  -11.436024|    0.000441|   -0.000182|
+-----------------------------------------------------------------------+
|        File Writing Summary       |              Filename             |
+-----------------------------------------------------------------------+
|SU2 restart                        |restart_flow.dat                   |
|Paraview                           |flow.vtu                           |
|Paraview surface                   |surface_flow.vtu                   |
|CSV file                           |surface_flow.csv                   |
+-----------------------------------------------------------------------+
+----------------------------------------------------------------+
|  Inner_Iter|    rms[Rho]|   rms[RhoE]|          CL|          CD|
+----------------------------------------------------------------+
|         501|  -11.870887|  -11.446855|    0.000441|   -0.000182|
|         502|  -11.884673|  -11.457661|    0.000441|   -0.000182|
|         503|  -11.898419|  -11.468452|    0.000441|   -0.000182|
|         504|  -11.912127|  -11.479221|    0.000441|   -0.000182|
|         505|  -11.925789|  -11.489965|    0.000441|   -0.000182|
|         506|  -11.939411|  -11.500691|    0.000441|   -0.000182|
|         507|  -11.952985|  -11.511392|    0.000441|   -0.000182|
|         508|  -11.966512|  -11.522066|    0.000441|   -0.000182|
|         509|  -11.979993|  -11.532720|    0.000441|   -0.000182|
|         510|  -11.993422|  -11.543344|    0.000441|   -0.000182|
|         511|  -12.006802|  -11.553946|    0.000441|   -0.000182|
|         512|  -12.020128|  -11.564517|    0.000441|   -0.000182|
|         513|  -12.033400|  -11.575062|    0.000441|   -0.000182|
|         514|  -12.046618|  -11.585578|    0.000441|   -0.000182|
|         515|  -12.059774|  -11.596060|    0.000441|   -0.000182|
|         516|  -12.072875|  -11.606517|    0.000441|   -0.000182|
|         517|  -12.085915|  -11.616941|    0.000441|   -0.000182|
|         518|  -12.098892|  -11.627329|    0.000441|   -0.000182|
|         519|  -12.111809|  -11.637691|    0.000441|   -0.000182|
|         520|  -12.124653|  -11.648009|    0.000441|   -0.000182|
|         521|  -12.137436|  -11.658295|    0.000441|   -0.000182|
|         522|  -12.150155|  -11.668554|    0.000441|   -0.000182|
|         523|  -12.162797|  -11.678768|    0.000441|   -0.000182|
|         524|  -12.175373|  -11.688950|    0.000441|   -0.000182|
|         525|  -12.187875|  -11.699095|    0.000441|   -0.000182|
|         526|  -12.200302|  -11.709192|    0.000441|   -0.000182|
|         527|  -12.212655|  -11.719255|    0.000441|   -0.000182|
|         528|  -12.224928|  -11.729274|    0.000441|   -0.000182|
|         529|  -12.237135|  -11.739269|    0.000441|   -0.000182|
|         530|  -12.249249|  -11.749201|    0.000441|   -0.000182|
|         531|  -12.261296|  -11.759107|    0.000441|   -0.000182|
|         532|  -12.273257|  -11.768963|    0.000441|   -0.000182|
|         533|  -12.285134|  -11.778774|    0.000441|   -0.000182|
|         534|  -12.296929|  -11.788542|    0.000441|   -0.000182|
|         535|  -12.308644|  -11.798272|    0.000441|   -0.000182|
|         536|  -12.320269|  -11.807957|    0.000441|   -0.000182|
|         537|  -12.331807|  -11.817587|    0.000441|   -0.000182|
|         538|  -12.343278|  -11.827193|    0.000441|   -0.000182|
|         539|  -12.354645|  -11.836738|    0.000441|   -0.000182|
|         540|  -12.365924|  -11.846232|    0.000441|   -0.000182|
|         541|  -12.377113|  -11.855682|    0.000441|   -0.000182|
|         542|  -12.388221|  -11.865090|    0.000441|   -0.000182|
|         543|  -12.399244|  -11.874455|    0.000441|   -0.000182|
|         544|  -12.410168|  -11.883763|    0.000441|   -0.000182|
|         545|  -12.421013|  -11.893037|    0.000441|   -0.000182|
|         546|  -12.431771|  -11.902261|    0.000441|   -0.000182|
|         547|  -12.442426|  -11.911424|    0.000441|   -0.000182|
|         548|  -12.453006|  -11.920557|    0.000441|   -0.000182|
|         549|  -12.463495|  -11.929634|    0.000441|   -0.000182|
|         550|  -12.473891|  -11.938664|    0.000441|   -0.000182|
|         551|  -12.484207|  -11.947652|    0.000441|   -0.000182|
|         552|  -12.494426|  -11.956585|    0.000441|   -0.000182|
|         553|  -12.504569|  -11.965482|    0.000441|   -0.000182|
|         554|  -12.514612|  -11.974321|    0.000441|   -0.000182|
|         555|  -12.524580|  -11.983120|    0.000441|   -0.000182|
|         556|  -12.534466|  -11.991886|    0.000441|   -0.000182|
|         557|  -12.544258|  -12.000590|    0.000441|   -0.000182|
|         558|  -12.553970|  -12.009248|    0.000441|   -0.000182|
|         559|  -12.563608|  -12.017871|    0.000441|   -0.000182|
|         560|  -12.573162|  -12.026453|    0.000441|   -0.000182|
|         561|  -12.582629|  -12.034977|    0.000441|   -0.000182|
|         562|  -12.592033|  -12.043479|    0.000441|   -0.000182|
|         563|  -12.601350|  -12.051920|    0.000441|   -0.000182|
|         564|  -12.610595|  -12.060329|    0.000441|   -0.000182|
|         565|  -12.619752|  -12.068686|    0.000441|   -0.000182|
|         566|  -12.628852|  -12.077011|    0.000441|   -0.000182|
|         567|  -12.637877|  -12.085301|    0.000441|   -0.000182|
|         568|  -12.646829|  -12.093542|    0.000441|   -0.000182|
|         569|  -12.655691|  -12.101735|    0.000441|   -0.000182|
|         570|  -12.664512|  -12.109903|    0.000441|   -0.000182|
|         571|  -12.673261|  -12.118037|    0.000441|   -0.000182|
|         572|  -12.681956|  -12.126136|    0.000441|   -0.000182|
|         573|  -12.690560|  -12.134180|    0.000441|   -0.000182|
|         574|  -12.699130|  -12.142213|    0.000441|   -0.000182|
|         575|  -12.707612|  -12.150188|    0.000441|   -0.000182|
|         576|  -12.716067|  -12.158150|    0.000441|   -0.000182|
|         577|  -12.724464|  -12.166089|    0.000441|   -0.000182|
|         578|  -12.732788|  -12.173975|    0.000441|   -0.000182|
|         579|  -12.741050|  -12.181826|    0.000441|   -0.000182|
|         580|  -12.749281|  -12.189663|    0.000441|   -0.000182|
|         581|  -12.757453|  -12.197465|    0.000441|   -0.000182|
|         582|  -12.765580|  -12.205239|    0.000441|   -0.000182|
|         583|  -12.773642|  -12.212970|    0.000441|   -0.000182|
|         584|  -12.781685|  -12.220699|    0.000441|   -0.000182|
|         585|  -12.789672|  -12.228387|    0.000441|   -0.000182|
|         586|  -12.797618|  -12.236057|    0.000441|   -0.000182|
|         587|  -12.805509|  -12.243686|    0.000441|   -0.000182|
|         588|  -12.813373|  -12.251309|    0.000441|   -0.000182|
|         589|  -12.821186|  -12.258888|    0.000441|   -0.000182|
|         590|  -12.828997|  -12.266488|    0.000441|   -0.000182|
|         591|  -12.836743|  -12.274029|    0.000441|   -0.000182|
|         592|  -12.844470|  -12.281571|    0.000441|   -0.000182|
|         593|  -12.852138|  -12.289070|    0.000441|   -0.000182|
|         594|  -12.859814|  -12.296580|    0.000441|   -0.000182|
|         595|  -12.867435|  -12.304050|    0.000441|   -0.000182|
|         596|  -12.875017|  -12.311496|    0.000441|   -0.000182|
|         597|  -12.882585|  -12.318948|    0.000441|   -0.000182|
|         598|  -12.890131|  -12.326374|    0.000441|   -0.000182|
|         599|  -12.897656|  -12.333798|    0.000441|   -0.000182|
|         600|  -12.905175|  -12.341215|    0.000441|   -0.000182|
|         601|  -12.912615|  -12.348570|    0.000441|   -0.000182|
|         602|  -12.920057|  -12.355926|    0.000441|   -0.000182|
|         603|  -12.927481|  -12.363284|    0.000441|   -0.000182|
|         604|  -12.934898|  -12.370642|    0.000441|   -0.000182|
|         605|  -12.942307|  -12.377988|    0.000441|   -0.000182|
|         606|  -12.949669|  -12.385305|    0.000441|   -0.000182|
|         607|  -12.957015|  -12.392611|    0.000441|   -0.000182|
|         608|  -12.964362|  -12.399931|    0.000441|   -0.000182|
|         609|  -12.971660|  -12.407203|    0.000441|   -0.000182|
|         610|  -12.978996|  -12.414504|    0.000441|   -0.000182|
|         611|  -12.986308|  -12.421801|    0.000441|   -0.000182|
|         612|  -12.993576|  -12.429067|    0.000441|   -0.000182|
|         613|  -13.000849|  -12.436335|    0.000441|   -0.000182|

----------------------------- Solver Exit -------------------------------
All convergence criteria satisfied.
+-----------------------------------------------------------------------+
|      Convergence Field     |     Value    |   Criterion  |  Converged |
+-----------------------------------------------------------------------+
|                    rms[Rho]|      -13.0008|         < -13|         Yes|
+-----------------------------------------------------------------------+
-------------------------------------------------------------------------
+-----------------------------------------------------------------------+
|        File Writing Summary       |              Filename             |
+-----------------------------------------------------------------------+
|SU2 restart                        |restart_flow.dat                   |
|Paraview                           |flow.vtu                           |
|Paraview surface                   |surface_flow.vtu                   |
|CSV file                           |surface_flow.csv                   |
+-----------------------------------------------------------------------+

------------------------- Solver Postprocessing -------------------------
Deleted CNumerics container.
Deleted CIntegration container.
Deleted CSolver container.
Deleted CIteration container.
Deleted CInterpolator container.
Deleted CInterface container.
Deleted CGeometry container.
Deleted CFreeFormDefBox class.
Deleted CSurfaceMovement class.
Deleted CVolumetricMovement class.
Deleted CConfig container.
Deleted nInst container.
Deleted COutput class.
-------------------------------------------------------------------------

------------------------- Exit Success (SU2_CFD) ------------------------

