
-------------------------------------------------------------------------
|    ___ _   _ ___                                                      |
|   / __| | | |_  )   Release 7.0.5 "Blackbird"                         |
|   \__ \ |_| |/ /                                                      |
|   |___/\___//___|   Suite (Mesh Deformation Code)                     |
|                                                                       |
-------------------------------------------------------------------------
| SU2 Project Website: https://su2code.github.io                        |
|                                                                       |
| The SU2 Project is maintained by the SU2 Foundation                   |
| (http://su2foundation.org)                                            |
-------------------------------------------------------------------------
| Copyright 2012-2020, SU2 Contributors                                 |
|                                                                       |
| SU2 is free software; you can redistribute it and/or                  |
| modify it under the terms of the GNU Lesser General Public            |
| License as published by the Free Software Foundation; either          |
| version 2.1 of the License, or (at your option) any later version.    |
|                                                                       |
| SU2 is distributed in the hope that it will be useful,                |
| but WITHOUT ANY WARRANTY; without even the implied warranty of        |
| MERCHANTABILITY or FITNESS FOR A PARTICULAR PURPOSE. See the GNU      |
| Lesser General Public License for more details.                       |
|                                                                       |
| You should have received a copy of the GNU Lesser General Public      |
| License along with SU2. If not, see <http://www.gnu.org/licenses/>.   |
-------------------------------------------------------------------------

----------------- Physical Case Definition ( Zone 0 ) -------------------
Input mesh file name: mesh_NACA0012_inv.su2

---------------- Grid deformation parameters ( Zone 0 )  ----------------
Grid deformation using a linear elasticity method.
Design variables definition (markers <-> value <-> param):
Hicks Henne <-> airfoil <-> 3.49217e-09 <-> ( 0, 0.05 )
Hicks Henne <-> airfoil <-> 1.58216e-09 <-> ( 0, 0.1 )
Hicks Henne <-> airfoil <-> 4.99753e-10 <-> ( 0, 0.15 )
Hicks Henne <-> airfoil <-> -6.26657e-11 <-> ( 0, 0.2 )
Hicks Henne <-> airfoil <-> -3.14366e-10 <-> ( 0, 0.25 )
Hicks Henne <-> airfoil <-> -3.89718e-10 <-> ( 0, 0.3 )
Hicks Henne <-> airfoil <-> -3.72466e-10 <-> ( 0, 0.35 )
Hicks Henne <-> airfoil <-> -3.12677e-10 <-> ( 0, 0.4 )
Hicks Henne <-> airfoil <-> -2.38594e-10 <-> ( 0, 0.45 )
Hicks Henne <-> airfoil <-> -1.64981e-10 <-> ( 0, 0.5 )
Hicks Henne <-> airfoil <-> -9.891e-11 <-> ( 0, 0.55 )
Hicks Henne <-> airfoil <-> -4.35928e-11 <-> ( 0, 0.6 )
Hicks Henne <-> airfoil <-> -7.05794e-13 <-> ( 0, 0.65 )
Hicks Henne <-> airfoil <-> 2.85485e-11 <-> ( 0, 0.7 )
Hicks Henne <-> airfoil <-> 4.34608e-11 <-> ( 0, 0.75 )
Hicks Henne <-> airfoil <-> 4.47778e-11 <-> ( 0, 0.8 )
Hicks Henne <-> airfoil <-> 3.66426e-11 <-> ( 0, 0.85 )
Hicks Henne <-> airfoil <-> 2.99978e-11 <-> ( 0, 0.9 )
Hicks Henne <-> airfoil <-> 4.15531e-11 <-> ( 0, 0.95 )
Hicks Henne <-> airfoil <-> 3.89825e-09 <-> ( 1, 0.05 )
Hicks Henne <-> airfoil <-> 1.46613e-09 <-> ( 1, 0.1 )
Hicks Henne <-> airfoil <-> 2.35113e-10 <-> ( 1, 0.15 )
Hicks Henne <-> airfoil <-> -3.3693e-10 <-> ( 1, 0.2 )
Hicks Henne <-> airfoil <-> -5.51697e-10 <-> ( 1, 0.25 )
Hicks Henne <-> airfoil <-> -5.8194e-10 <-> ( 1, 0.3 )
Hicks Henne <-> airfoil <-> -5.25956e-10 <-> ( 1, 0.35 )
Hicks Henne <-> airfoil <-> -4.37683e-10 <-> ( 1, 0.4 )
Hicks Henne <-> airfoil <-> -3.44846e-10 <-> ( 1, 0.45 )
Hicks Henne <-> airfoil <-> -2.60302e-10 <-> ( 1, 0.5 )
Hicks Henne <-> airfoil <-> -1.89163e-10 <-> ( 1, 0.55 )
Hicks Henne <-> airfoil <-> -1.33141e-10 <-> ( 1, 0.6 )
Hicks Henne <-> airfoil <-> -9.30393e-11 <-> ( 1, 0.65 )
Hicks Henne <-> airfoil <-> -6.99453e-11 <-> ( 1, 0.7 )
Hicks Henne <-> airfoil <-> -6.54577e-11 <-> ( 1, 0.75 )
Hicks Henne <-> airfoil <-> -8.12138e-11 <-> ( 1, 0.8 )
Hicks Henne <-> airfoil <-> -1.17655e-10 <-> ( 1, 0.85 )
Hicks Henne <-> airfoil <-> -1.71027e-10 <-> ( 1, 0.9 )
Hicks Henne <-> airfoil <-> -2.46561e-10 <-> ( 1, 0.95 )

-------------------- Output Information ( Zone 0 ) ----------------------
Output mesh file name: mesh_NACA0012_inv_deform.su2. 
A file will be created to visualize the surface deformation.
No file for visualizing the deformation.
Cell stiffness scaled by inverse of the cell volume.

------------- Config File Boundary Information ( Zone 0 ) ---------------
+-----------------------------------------------------------------------+
|                        Marker Type|                        Marker Name|
+-----------------------------------------------------------------------+
|                         Euler wall|                            airfoil|
+-----------------------------------------------------------------------+
|                          Far-field|                           farfield|
+-----------------------------------------------------------------------+
Two dimensional problem.
5233 grid points.
10216 volume elements.
2 surface markers.
200 boundary elements in index 0 (Marker = airfoil).
50 boundary elements in index 1 (Marker = farfield).
10216 triangles.

----------------------- Preprocessing computations ----------------------
Setting local point connectivity.
Checking the numerical grid orientation of the interior elements.
Identify edges and vertices.
Computing centers of gravity.
Setting the bound control volume structure.
  Info: Ignoring the following volume output fields/groups:
  SOLUTION
Volume output fields: COORDINATES
  Info: Ignoring the following screen output fields:
  RMS_DENSITY, RMS_ENERGY, LIFT, DRAG
Screen output fields: INNER_ITER
  Info: Ignoring the following history output groups:
  RMS_RES, AERO_COEFF
History output group(s): ITER
Warning: No (valid) fields chosen for convergence monitoring. Convergence monitoring inactive.
Warning: No (valid) fields chosen for time convergence monitoring. Time convergence monitoring inactive.

--------------------- Surface grid deformation (ZONE 0) -----------------
Performing the deformation of the surface grid.

------------------- Volumetric grid deformation (ZONE 0) ----------------
Performing the deformation of the volumetric grid.
Computing volumes of the grid elements.
Min. volume: 4.14044e-08, max. volume: 4.10267.

# FGMRES residual history
# Residual tolerance target = 1e-14
# Initial residual norm     = 4.16292e-06
     0     1
     10     0.00255779
     20     0.000625342
     30     0.000123821
     40     7.1039e-05
     50     6.94946e-06
     60     9.9223e-08
     70     1.39128e-09
     80     2.58723e-11
     90     2.09234e-12
     100     1.7781e-13
     110     1.39596e-14
# FGMRES final (true) residual:
# Iteration = 112: |res|/|res0| = 9.55349e-15.

Computing volumes of the grid elements.
Non-linear iter.: 1/1. Linear iter.: 112. Min. area: 4.14042e-08. Error: 9.55349e-15.

----------------------- Write deformed grid files -----------------------
|SU2 mesh                           |mesh_NACA0012_inv_deform.su2       |
Adding any FFD information to the SU2 file.

------------------------- Solver Postprocessing -------------------------
Deleted CGeometry container.
Deleted CSurfaceMovement class.
Deleted CVolumetricMovement class.
Deleted CConfig container.
Deleted COutput class.

Completed in 0.312872 seconds on 1 core.

------------------------- Exit Success (SU2_DEF) ------------------------

