
-------------------------------------------------------------------------
|    ___ _   _ ___                                                      |
|   / __| | | |_  )   Release 7.0.5 "Blackbird"                         |
|   \__ \ |_| |/ /                                                      |
|   |___/\___//___|   Suite (Computational Fluid Dynamics Code)         |
|                                                                       |
-------------------------------------------------------------------------
| SU2 Project Website: https://su2code.github.io                        |
|                                                                       |
| The SU2 Project is maintained by the SU2 Foundation                   |
| (http://su2foundation.org)                                            |
-------------------------------------------------------------------------
| Copyright 2012-2020, SU2 Contributors                                 |
|                                                                       |
| SU2 is free software; you can redistribute it and/or                  |
| modify it under the terms of the GNU Lesser General Public            |
| License as published by the Free Software Foundation; either          |
| version 2.1 of the License, or (at your option) any later version.    |
|                                                                       |
| SU2 is distributed in the hope that it will be useful,                |
| but WITHOUT ANY WARRANTY; without even the implied warranty of        |
| MERCHANTABILITY or FITNESS FOR A PARTICULAR PURPOSE. See the GNU      |
| Lesser General Public License for more details.                       |
|                                                                       |
| You should have received a copy of the GNU Lesser General Public      |
| License along with SU2. If not, see <http://www.gnu.org/licenses/>.   |
-------------------------------------------------------------------------

Parsing config file for zone 0

----------------- Physical Case Definition ( Zone 0 ) -------------------
Compressible Euler equations.
Mach number: 0.1.
Angle of attack (AoA): 0 deg, and angle of sideslip (AoS): 0 deg.
No restart solution, use the values at infinity (freestream).
Non-Dimensional simulation (P=1.0, Rho=1.0, T=1.0 at the farfield).
The reference area is 1 m^2.
The semi-span will be computed using the max y(3D) value.
The reference length is 1 m.
Reference origin for moment evaluation is (0.25, 0, 0).
Surface(s) where the force coefficients are evaluated: airfoil.

Surface(s) plotted in the output file: airfoil.
Surface(s) affected by the design variables: airfoil.
Input mesh file name: mesh_NACA0012_inv_deform.su2

--------------- Space Numerical Integration ( Zone 0 ) ------------------
Jameson-Schmidt-Turkel scheme (2nd order in space) for the flow inviscid terms.
JST viscous coefficients (2nd & 4th): 0.5, 0.02.
The method includes a grid stretching correction (p = 0.3).
Gradient for upwind reconstruction: Green-Gauss.
Gradient for viscous and source terms: Green-Gauss.

--------------- Time Numerical Integration  ( Zone 0 ) ------------------
Local time stepping (steady state simulation).
Euler implicit method for the flow equations.
FGMRES is used for solving the linear system.
Using a LU-SGS preconditioning.
Convergence criteria of the linear solver: 0.0001.
Max number of linear iterations: 2.
V Multigrid Cycle, with 2 multigrid levels.
Damping factor for the residual restriction: 1.
Damping factor for the correction prolongation: 1.
No CFL adaptation.
+-------------------------------------------+
|  MG Level| Presmooth|PostSmooth|CorrectSmo|
+-------------------------------------------+
|         0|         1|         0|         0|
|         1|         2|         0|         0|
|         2|         3|         0|         0|
+-------------------------------------------+
Courant-Friedrichs-Lewy number:       10

------------------ Convergence Criteria  ( Zone 0 ) ---------------------
Maximum number of solver subiterations: 1000.
Begin convergence monitoring at iteration 10.
Residual minimum value: 1e-13.
Cauchy series min. value: 1e-06.
Number of Cauchy elements: 100.
Begin windowed time average at iteration 0.

-------------------- Output Information ( Zone 0 ) ----------------------
Writing solution files every 250 iterations.
Writing the convergence history file every 1 inner iterations.
Writing the screen convergence history every 1 inner iterations.
The tabular file format is CSV (.csv).
Convergence history file name: history_direct.
Forces breakdown file name: forces_breakdown.dat.
Surface file name: surface_flow.
Volume file name: flow.
Restart file name: restart_flow.dat.

------------- Config File Boundary Information ( Zone 0 ) ---------------
+-----------------------------------------------------------------------+
|                        Marker Type|                        Marker Name|
+-----------------------------------------------------------------------+
|                         Euler wall|                            airfoil|
+-----------------------------------------------------------------------+
|                          Far-field|                           farfield|
+-----------------------------------------------------------------------+

-------------------- Output Preprocessing ( Zone 0 ) --------------------
Screen output fields: INNER_ITER, RMS_DENSITY, RMS_ENERGY, LIFT, DRAG
History output group(s): ITER, RMS_RES, AERO_COEFF
Convergence field(s): RMS_DENSITY
Warning: No (valid) fields chosen for time convergence monitoring. Time convergence monitoring inactive.
Volume output fields: COORDINATES, SOLUTION, PRIMITIVE

------------------- Geometry Preprocessing ( Zone 0 ) -------------------
Two dimensional problem.
5233 grid points.
10216 volume elements.
2 surface markers.
200 boundary elements in index 0 (Marker = airfoil).
50 boundary elements in index 1 (Marker = farfield).
10216 triangles.
Setting point connectivity.
Renumbering points (Reverse Cuthill McKee Ordering).
Recomputing point connectivity.
Setting element connectivity.
Checking the numerical grid orientation.
Identifying edges and vertices.
Computing centers of gravity.
Setting the control volume structure.
Area of the computational grid: 1253.25.
Searching for the closest normal neighbors to the surfaces.
Storing a mapping from global to local point index.
Compute the surface curvature.
Max K: 7835.1. Mean K: 34.8203. Standard deviation K: 494.448.
Checking for periodicity.
Computing mesh quality statistics for the dual control volumes.
+--------------------------------------------------------------+
|           Mesh Quality Metric|        Minimum|        Maximum|
+--------------------------------------------------------------+
|    Orthogonality Angle (deg.)|        62.6722|        89.7085|
|     CV Face Area Aspect Ratio|              1|        7.18345|
|           CV Sub-Volume Ratio|        1.00285|        6.47829|
+--------------------------------------------------------------+
Setting the multigrid structure.
+-------------------------------------------+
|  MG Level|       CVs|Aggl. Rate|       CFL|
+-------------------------------------------+
|         0|      5233|    1/1.00|        10|
|         1|      1533|    1/3.41|   8.11871|
|         2|       443|    1/3.46|    6.5465|
+-------------------------------------------+
Finding max control volume width.
Wetted area = 2.03922 m.
Area projection in the x-plane = 0.119982 m, y-plane = 0.999845 m.
Max. coordinate in the x-direction = 1 m, y-direction = 0.0600008 m.
Min. coordinate in the x-direction = 0 m, y-direction = -0.060013 m.
Checking if Euler & Symmetry markers are straight/plane:
Boundary marker airfoil is NOT a single straight.
Computing wall distances.

-------------------- Solver Preprocessing ( Zone 0 ) --------------------
Inviscid flow: Computing density based on free-stream
temperature and pressure using the ideal gas law.
Force coefficients computed using free-stream values.

-- Models:
+------------------------------------------------------------------------------+
|          Viscosity Model|        Conductivity Model|              Fluid Model|
+------------------------------------------------------------------------------+
|                        -|                         -|             STANDARD_AIR|
+------------------------------------------------------------------------------+
-- Fluid properties:
+------------------------------------------------------------------------------+
|                  Name|    Dim. value|    Ref. value|      Unit|Non-dim. value|
+------------------------------------------------------------------------------+
|          Gas Constant|       287.058|       287.058|  N.m/kg.K|             1|
|      Spec. Heat Ratio|             -|             -|         -|           1.4|
+------------------------------------------------------------------------------+
-- Initial and free-stream conditions:
+------------------------------------------------------------------------------+
|                  Name|    Dim. value|    Ref. value|      Unit|Non-dim. value|
+------------------------------------------------------------------------------+
|       Static Pressure|        101325|        101325|        Pa|             1|
|               Density|       1.22498|       1.22498|    kg/m^3|             1|
|           Temperature|        288.15|        288.15|         K|             1|
|          Total Energy|        207368|       82715.8|   m^2/s^2|         2.507|
|            Velocity-X|       34.0297|       287.603|       m/s|      0.118322|
|            Velocity-Y|             0|       287.603|       m/s|             0|
|    Velocity Magnitude|       34.0297|       287.603|       m/s|      0.118322|
+------------------------------------------------------------------------------+
|           Mach Number|             -|             -|         -|           0.1|
+------------------------------------------------------------------------------+
Initialize Jacobian structure (Euler). MG level: 0.
Initialize Jacobian structure (Euler). MG level: 1.
Initialize Jacobian structure (Euler). MG level: 2.

------------------- Numerics Preprocessing ( Zone 0 ) -------------------

----------------- Integration Preprocessing ( Zone 0 ) ------------------

------------------- Iteration Preprocessing ( Zone 0 ) ------------------
Euler/Navier-Stokes/RANS fluid iteration.

------------------------------ Begin Solver -----------------------------

Simulation Run using the Single-zone Driver
+----------------------------------------------------------------+
|  Inner_Iter|    rms[Rho]|   rms[RhoE]|          CL|          CD|
+----------------------------------------------------------------+
|           0|   -4.494821|   -3.949885|   -0.082502|    1.367904|
|           1|   -4.620620|   -4.069710|    0.159617|   -0.139022|
|           2|   -4.732217|   -4.183548|    0.039228|   -0.248840|
|           3|   -4.707309|   -4.152669|   -0.079835|    0.062533|
|           4|   -4.653759|   -4.106705|   -0.059263|    0.183441|
|           5|   -4.793986|   -4.242396|    0.055305|    0.029458|
|           6|   -4.756541|   -4.209048|    0.053178|   -0.087795|
|           7|   -4.968117|   -4.417226|   -0.040519|   -0.014790|
|           8|   -4.950628|   -4.403148|   -0.040814|    0.080238|
|           9|   -5.165201|   -4.615366|    0.029111|    0.030239|
|          10|   -5.209668|   -4.661055|    0.034171|   -0.050120|
|          11|   -5.316261|   -4.767319|   -0.013875|   -0.017126|
|          12|   -5.439824|   -4.892024|   -0.022501|    0.041553|
|          13|   -5.465026|   -4.915053|    0.007688|    0.016682|
|          14|   -5.618787|   -5.071736|    0.018752|   -0.027760|
|          15|   -5.648962|   -5.097525|    0.000664|   -0.010269|
|          16|   -5.731098|   -5.185981|   -0.010822|    0.022795|
|          17|   -5.864160|   -5.311957|   -0.001147|    0.010298|
|          18|   -5.872923|   -5.327430|    0.008099|   -0.014337|
|          19|   -6.040148|   -5.488847|    0.002781|   -0.006446|
|          20|   -5.981825|   -5.437103|   -0.004150|    0.010715|
|          21|   -6.193380|   -5.643988|   -0.001787|    0.005507|
|          22|   -6.087361|   -5.542755|    0.002197|   -0.006323|
|          23|   -6.286843|   -5.740928|    0.000788|   -0.003398|
|          24|   -6.178566|   -5.633530|   -0.001429|    0.004399|
|          25|   -6.346234|   -5.802558|   -0.000677|    0.002654|
|          26|   -6.304616|   -5.761361|    0.000472|   -0.002726|
|          27|   -6.372628|   -5.832683|   -0.000051|   -0.001936|
|          28|   -6.443987|   -5.902455|   -0.000523|    0.001767|
|          29|   -6.446044|   -5.904225|   -0.000020|    0.001508|
|          30|   -6.514600|   -5.977560|    0.000423|   -0.001182|
|          31|   -6.507834|   -5.971373|    0.000228|   -0.001392|
|          32|   -6.550439|   -6.015893|    0.000038|    0.000493|
|          33|   -6.591018|   -6.056300|    0.000345|    0.001062|
|          34|   -6.581677|   -6.046400|    0.000641|   -0.000198|
|          35|   -6.598190|   -6.065168|    0.000591|   -0.000976|
|          36|   -6.602354|   -6.069520|    0.000465|   -0.000330|
|          37|   -6.616572|   -6.085505|    0.000545|    0.000463|
|          38|   -6.629246|   -6.099090|    0.000733|    0.000266|
|          39|   -6.633405|   -6.103436|    0.000737|   -0.000414|
|          40|   -6.641748|   -6.112248|    0.000588|   -0.000553|
|          41|   -6.649886|   -6.121424|    0.000512|   -0.000147|
|          42|   -6.664775|   -6.138308|    0.000601|    0.000095|
|          43|   -6.679680|   -6.154498|    0.000665|   -0.000129|
|          44|   -6.691019|   -6.166299|    0.000567|   -0.000419|
|          45|   -6.704834|   -6.181134|    0.000406|   -0.000402|
|          46|   -6.717969|   -6.195641|    0.000355|   -0.000216|
|          47|   -6.734774|   -6.214021|    0.000423|   -0.000181|
|          48|   -6.752917|   -6.233049|    0.000453|   -0.000328|
|          49|   -6.766286|   -6.246505|    0.000383|   -0.000434|
|          50|   -6.778681|   -6.259573|    0.000288|   -0.000388|
|          51|   -6.791492|   -6.273419|    0.000273|   -0.000307|
|          52|   -6.804125|   -6.286769|    0.000336|   -0.000322|
|          53|   -6.816137|   -6.299031|    0.000387|   -0.000401|
|          54|   -6.825886|   -6.308759|    0.000384|   -0.000431|
|          55|   -6.834576|   -6.317734|    0.000369|   -0.000389|
|          56|   -6.843964|   -6.327677|    0.000395|   -0.000349|
|          57|   -6.853501|   -6.337674|    0.000460|   -0.000364|
|          58|   -6.862687|   -6.347136|    0.000521|   -0.000400|
|          59|   -6.871835|   -6.356515|    0.000555|   -0.000402|
|          60|   -6.881815|   -6.366803|    0.000579|   -0.000373|
|          61|   -6.893085|   -6.378403|    0.000615|   -0.000354|
|          62|   -6.905209|   -6.390789|    0.000663|   -0.000362|
|          63|   -6.917867|   -6.403613|    0.000704|   -0.000377|
|          64|   -6.931226|   -6.417055|    0.000729|   -0.000373|
|          65|   -6.945510|   -6.431341|    0.000744|   -0.000360|
|          66|   -6.960619|   -6.446377|    0.000759|   -0.000355|
|          67|   -6.976098|   -6.461708|    0.000773|   -0.000362|
|          68|   -6.991696|   -6.477081|    0.000780|   -0.000370|
|          69|   -7.007466|   -6.492550|    0.000776|   -0.000370|
|          70|   -7.023304|   -6.508023|    0.000767|   -0.000367|
|          71|   -7.038906|   -6.523237|    0.000756|   -0.000371|
|          72|   -7.053990|   -6.537937|    0.000744|   -0.000379|
|          73|   -7.068540|   -6.552091|    0.000729|   -0.000386|
|          74|   -7.082771|   -6.565891|    0.000711|   -0.000389|
|          75|   -7.096789|   -6.579459|    0.000693|   -0.000391|
|          76|   -7.110527|   -6.592752|    0.000676|   -0.000397|
|          77|   -7.123969|   -6.605768|    0.000662|   -0.000404|
|          78|   -7.137302|   -6.618668|    0.000650|   -0.000409|
|          79|   -7.150785|   -6.631696|    0.000640|   -0.000412|
|          80|   -7.164549|   -6.644994|    0.000634|   -0.000415|
|          81|   -7.178563|   -6.658559|    0.000632|   -0.000418|
|          82|   -7.192787|   -6.672366|    0.000633|   -0.000422|
|          83|   -7.207240|   -6.686446|    0.000639|   -0.000424|
|          84|   -7.221927|   -6.700815|    0.000647|   -0.000424|
|          85|   -7.236761|   -6.715406|    0.000659|   -0.000425|
|          86|   -7.251615|   -6.730101|    0.000674|   -0.000425|
|          87|   -7.266405|   -6.744816|    0.000690|   -0.000426|
|          88|   -7.281090|   -6.759501|    0.000708|   -0.000425|
|          89|   -7.295622|   -6.774089|    0.000728|   -0.000424|
|          90|   -7.309966|   -6.788522|    0.000747|   -0.000422|
|          91|   -7.324162|   -6.802812|    0.000766|   -0.000422|
|          92|   -7.338326|   -6.817058|    0.000783|   -0.000420|
|          93|   -7.352598|   -6.831388|    0.000800|   -0.000419|
|          94|   -7.367102|   -6.845923|    0.000814|   -0.000418|
|          95|   -7.381953|   -6.860787|    0.000827|   -0.000417|
|          96|   -7.397264|   -6.876119|    0.000837|   -0.000417|
|          97|   -7.413119|   -6.892043|    0.000845|   -0.000416|
|          98|   -7.429531|   -6.908620|    0.000850|   -0.000416|
|          99|   -7.446427|   -6.925819|    0.000853|   -0.000416|
|         100|   -7.463663|   -6.943534|    0.000854|   -0.000417|
|         101|   -7.481036|   -6.961598|    0.000853|   -0.000418|
|         102|   -7.498309|   -6.979797|    0.000851|   -0.000419|
|         103|   -7.515233|   -6.997884|    0.000847|   -0.000420|
|         104|   -7.531568|   -7.015596|    0.000843|   -0.000421|
|         105|   -7.547120|   -7.032687|    0.000839|   -0.000423|
|         106|   -7.561775|   -7.048971|    0.000834|   -0.000425|
|         107|   -7.575526|   -7.064361|    0.000830|   -0.000426|
|         108|   -7.588485|   -7.078891|    0.000826|   -0.000428|
|         109|   -7.600861|   -7.092715|    0.000823|   -0.000430|
|         110|   -7.612924|   -7.106082|    0.000821|   -0.000432|
|         111|   -7.624972|   -7.119300|    0.000820|   -0.000433|
|         112|   -7.637278|   -7.132680|    0.000821|   -0.000435|
|         113|   -7.650054|   -7.146488|    0.000822|   -0.000436|
|         114|   -7.663420|   -7.160902|    0.000825|   -0.000438|
|         115|   -7.677398|   -7.176000|    0.000828|   -0.000439|
|         116|   -7.691921|   -7.191761|    0.000833|   -0.000440|
|         117|   -7.706849|   -7.208073|    0.000838|   -0.000440|
|         118|   -7.721987|   -7.224744|    0.000844|   -0.000441|
|         119|   -7.737105|   -7.241524|    0.000850|   -0.000442|
|         120|   -7.751974|   -7.258136|    0.000856|   -0.000442|
|         121|   -7.766404|   -7.274328|    0.000861|   -0.000442|
|         122|   -7.780279|   -7.289918|    0.000867|   -0.000442|
|         123|   -7.793586|   -7.304841|    0.000871|   -0.000442|
|         124|   -7.806427|   -7.319179|    0.000875|   -0.000442|
|         125|   -7.819004|   -7.333150|    0.000877|   -0.000442|
|         126|   -7.831580|   -7.347073|    0.000878|   -0.000442|
|         127|   -7.844431|   -7.361308|    0.000879|   -0.000442|
|         128|   -7.857796|   -7.376189|    0.000877|   -0.000442|
|         129|   -7.871836|   -7.391971|    0.000875|   -0.000442|
|         130|   -7.886604|   -7.408784|    0.000872|   -0.000442|
|         131|   -7.902033|   -7.426611|    0.000867|   -0.000443|
|         132|   -7.917943|   -7.445280|    0.000861|   -0.000443|
|         133|   -7.934055|   -7.464470|    0.000855|   -0.000443|
|         134|   -7.950023|   -7.483730|    0.000847|   -0.000443|
|         135|   -7.965471|   -7.502514|    0.000840|   -0.000443|
|         136|   -7.980041|   -7.520242|    0.000831|   -0.000444|
|         137|   -7.993456|   -7.536397|    0.000823|   -0.000444|
|         138|   -8.005582|   -7.550643|    0.000814|   -0.000445|
|         139|   -8.016461|   -7.562924|    0.000806|   -0.000445|
|         140|   -8.026317|   -7.573493|    0.000797|   -0.000446|
|         141|   -8.035503|   -7.582855|    0.000789|   -0.000446|
|         142|   -8.044436|   -7.591653|    0.000781|   -0.000447|
|         143|   -8.053519|   -7.600543|    0.000774|   -0.000448|
|         144|   -8.063081|   -7.610085|    0.000767|   -0.000448|
|         145|   -8.073338|   -7.620680|    0.000760|   -0.000449|
|         146|   -8.084376|   -7.632542|    0.000754|   -0.000450|
|         147|   -8.096155|   -7.645696|    0.000748|   -0.000450|
|         148|   -8.108524|   -7.659993|    0.000742|   -0.000451|
|         149|   -8.121248|   -7.675137|    0.000737|   -0.000451|
|         150|   -8.134041|   -7.690716|    0.000732|   -0.000452|
|         151|   -8.146604|   -7.706247|    0.000728|   -0.000453|
|         152|   -8.158677|   -7.721247|    0.000723|   -0.000453|
|         153|   -8.170080|   -7.735322|    0.000719|   -0.000454|
|         154|   -8.180761|   -7.748260|    0.000714|   -0.000454|
|         155|   -8.190803|   -7.760088|    0.000709|   -0.000454|
|         156|   -8.200411|   -7.771065|    0.000705|   -0.000455|
|         157|   -8.209867|   -7.781626|    0.000700|   -0.000455|
|         158|   -8.219475|   -7.792289|    0.000695|   -0.000455|
|         159|   -8.229510|   -7.803560|    0.000690|   -0.000456|
|         160|   -8.240177|   -7.815863|    0.000684|   -0.000456|
|         161|   -8.251581|   -7.829483|    0.000678|   -0.000456|
|         162|   -8.263715|   -7.844534|    0.000672|   -0.000456|
|         163|   -8.276457|   -7.860948|    0.000666|   -0.000457|
|         164|   -8.289576|   -7.878460|    0.000659|   -0.000457|
|         165|   -8.302761|   -7.896620|    0.000652|   -0.000457|
|         166|   -8.315646|   -7.914814|    0.000646|   -0.000457|
|         167|   -8.327860|   -7.932319|    0.000639|   -0.000457|
|         168|   -8.339093|   -7.948419|    0.000632|   -0.000457|
|         169|   -8.349152|   -7.962548|    0.000625|   -0.000457|
|         170|   -8.358005|   -7.974436|    0.000618|   -0.000457|
|         171|   -8.365782|   -7.984172|    0.000611|   -0.000457|
|         172|   -8.372745|   -7.992174|    0.000604|   -0.000458|
|         173|   -8.379228|   -7.999078|    0.000598|   -0.000458|
|         174|   -8.385575|   -8.005590|    0.000592|   -0.000458|
|         175|   -8.392090|   -8.012365|    0.000586|   -0.000458|
|         176|   -8.399003|   -8.019924|    0.000581|   -0.000458|
|         177|   -8.406448|   -8.028609|    0.000575|   -0.000458|
|         178|   -8.414464|   -8.038575|    0.000570|   -0.000458|
|         179|   -8.422996|   -8.049791|    0.000566|   -0.000459|
|         180|   -8.431915|   -8.062060|    0.000561|   -0.000459|
|         181|   -8.441039|   -8.075046|    0.000557|   -0.000459|
|         182|   -8.450156|   -8.088308|    0.000553|   -0.000459|
|         183|   -8.459062|   -8.101368|    0.000549|   -0.000459|
|         184|   -8.467588|   -8.113781|    0.000545|   -0.000459|
|         185|   -8.475633|   -8.125225|    0.000542|   -0.000460|
|         186|   -8.483176|   -8.135561|    0.000539|   -0.000460|
|         187|   -8.490275|   -8.144857|    0.000535|   -0.000460|
|         188|   -8.497050|   -8.153359|    0.000532|   -0.000460|
|         189|   -8.503654|   -8.161427|    0.000529|   -0.000460|
|         190|   -8.510242|   -8.169456|    0.000526|   -0.000461|
|         191|   -8.516949|   -8.177808|    0.000523|   -0.000461|
|         192|   -8.523866|   -8.186756|    0.000519|   -0.000461|
|         193|   -8.531034|   -8.196459|    0.000516|   -0.000461|
|         194|   -8.538440|   -8.206948|    0.000513|   -0.000461|
|         195|   -8.546024|   -8.218122|    0.000509|   -0.000461|
|         196|   -8.553687|   -8.229764|    0.000506|   -0.000461|
|         197|   -8.561309|   -8.241561|    0.000502|   -0.000461|
|         198|   -8.568762|   -8.253140|    0.000499|   -0.000461|
|         199|   -8.575934|   -8.264121|    0.000495|   -0.000461|
|         200|   -8.582744|   -8.274182|    0.000491|   -0.000461|
|         201|   -8.589156|   -8.283117|    0.000488|   -0.000461|
|         202|   -8.595186|   -8.290879|    0.000484|   -0.000461|
|         203|   -8.600892|   -8.297578|    0.000481|   -0.000461|
|         204|   -8.606368|   -8.303457|    0.000477|   -0.000461|
|         205|   -8.611722|   -8.308831|    0.000474|   -0.000461|
|         206|   -8.617062|   -8.314037|    0.000470|   -0.000461|
|         207|   -8.622478|   -8.319372|    0.000467|   -0.000461|
|         208|   -8.628037|   -8.325069|    0.000464|   -0.000461|
|         209|   -8.633772|   -8.331272|    0.000461|   -0.000461|
|         210|   -8.639687|   -8.338033|    0.000458|   -0.000461|
|         211|   -8.645755|   -8.345320|    0.000455|   -0.000461|
|         212|   -8.651929|   -8.353029|    0.000453|   -0.000461|
|         213|   -8.658144|   -8.361000|    0.000450|   -0.000461|
|         214|   -8.664333|   -8.369048|    0.000448|   -0.000461|
|         215|   -8.670432|   -8.376985|    0.000445|   -0.000461|
|         216|   -8.676388|   -8.384649|    0.000443|   -0.000461|
|         217|   -8.682173|   -8.391931|    0.000441|   -0.000461|
|         218|   -8.687775|   -8.398789|    0.000439|   -0.000461|
|         219|   -8.693210|   -8.405249|    0.000437|   -0.000461|
|         220|   -8.698509|   -8.411395|    0.000435|   -0.000461|
|         221|   -8.703712|   -8.417351|    0.000433|   -0.000461|
|         222|   -8.708865|   -8.423250|    0.000431|   -0.000461|
|         223|   -8.714009|   -8.429216|    0.000429|   -0.000461|
|         224|   -8.719174|   -8.435339|    0.000427|   -0.000461|
|         225|   -8.724377|   -8.441669|    0.000425|   -0.000461|
|         226|   -8.729621|   -8.448208|    0.000423|   -0.000461|
|         227|   -8.734895|   -8.454912|    0.000421|   -0.000461|
|         228|   -8.740178|   -8.461700|    0.000419|   -0.000461|
|         229|   -8.745443|   -8.468466|    0.000416|   -0.000461|
|         230|   -8.750659|   -8.475096|    0.000414|   -0.000461|
|         231|   -8.755799|   -8.481481|    0.000412|   -0.000461|
|         232|   -8.760843|   -8.487540|    0.000410|   -0.000461|
|         233|   -8.765777|   -8.493225|    0.000408|   -0.000461|
|         234|   -8.770601|   -8.498530|    0.000406|   -0.000461|
|         235|   -8.775323|   -8.503495|    0.000404|   -0.000461|
|         236|   -8.779959|   -8.508191|    0.000402|   -0.000461|
|         237|   -8.784533|   -8.512716|    0.000400|   -0.000461|
|         238|   -8.789070|   -8.517175|    0.000399|   -0.000461|
|         239|   -8.793592|   -8.521671|    0.000397|   -0.000461|
|         240|   -8.798121|   -8.526289|    0.000395|   -0.000461|
|         241|   -8.802670|   -8.531091|    0.000393|   -0.000461|
|         242|   -8.807247|   -8.536112|    0.000392|   -0.000461|
|         243|   -8.811853|   -8.541357|    0.000390|   -0.000461|
|         244|   -8.816480|   -8.546806|    0.000389|   -0.000461|
|         245|   -8.821119|   -8.552416|    0.000387|   -0.000461|
|         246|   -8.825755|   -8.558131|    0.000386|   -0.000461|
|         247|   -8.830373|   -8.563891|    0.000385|   -0.000460|
|         248|   -8.834961|   -8.569634|    0.000384|   -0.000460|
|         249|   -8.839506|   -8.575313|    0.000382|   -0.000460|
|         250|   -8.844001|   -8.580891|    0.000381|   -0.000460|
+-----------------------------------------------------------------------+
|        File Writing Summary       |              Filename             |
+-----------------------------------------------------------------------+
|SU2 restart                        |restart_flow.dat                   |
|Paraview                           |flow.vtu                           |
|Paraview surface                   |surface_flow.vtu                   |
|CSV file                           |surface_flow.csv                   |
+-----------------------------------------------------------------------+
+----------------------------------------------------------------+
|  Inner_Iter|    rms[Rho]|   rms[RhoE]|          CL|          CD|
+----------------------------------------------------------------+
|         251|   -8.848443|   -8.586354|    0.000380|   -0.000460|
|         252|   -8.852834|   -8.591704|    0.000379|   -0.000460|
|         253|   -8.857178|   -8.596958|    0.000378|   -0.000460|
|         254|   -8.861483|   -8.602146|    0.000377|   -0.000460|
|         255|   -8.865758|   -8.607303|    0.000376|   -0.000460|
|         256|   -8.870012|   -8.612464|    0.000376|   -0.000460|
|         257|   -8.874252|   -8.617659|    0.000375|   -0.000460|
|         258|   -8.878484|   -8.622908|    0.000374|   -0.000460|
|         259|   -8.882712|   -8.628221|    0.000373|   -0.000460|
|         260|   -8.886936|   -8.633598|    0.000372|   -0.000460|
|         261|   -8.891154|   -8.639028|    0.000371|   -0.000460|
|         262|   -8.895364|   -8.644490|    0.000371|   -0.000460|
|         263|   -8.899562|   -8.649962|    0.000370|   -0.000460|
|         264|   -8.903744|   -8.655421|    0.000369|   -0.000460|
|         265|   -8.907907|   -8.660844|    0.000368|   -0.000459|
|         266|   -8.912049|   -8.666218|    0.000368|   -0.000459|
|         267|   -8.916169|   -8.671536|    0.000367|   -0.000459|
|         268|   -8.920270|   -8.676798|    0.000366|   -0.000459|
|         269|   -8.924355|   -8.682015|    0.000366|   -0.000459|
|         270|   -8.928427|   -8.687204|    0.000365|   -0.000459|
|         271|   -8.932494|   -8.692386|    0.000364|   -0.000459|
|         272|   -8.936560|   -8.697585|    0.000364|   -0.000459|
|         273|   -8.940633|   -8.702822|    0.000363|   -0.000459|
|         274|   -8.944716|   -8.708116|    0.000363|   -0.000459|
|         275|   -8.948815|   -8.713481|    0.000362|   -0.000459|
|         276|   -8.952932|   -8.718924|    0.000362|   -0.000459|
|         277|   -8.957068|   -8.724445|    0.000362|   -0.000459|
|         278|   -8.961223|   -8.730040|    0.000361|   -0.000459|
|         279|   -8.965398|   -8.735697|    0.000361|   -0.000458|
|         280|   -8.969589|   -8.741404|    0.000361|   -0.000458|
|         281|   -8.973795|   -8.747143|    0.000361|   -0.000458|
|         282|   -8.978014|   -8.752902|    0.000360|   -0.000458|
|         283|   -8.982244|   -8.758666|    0.000360|   -0.000458|
|         284|   -8.986483|   -8.764426|    0.000360|   -0.000458|
|         285|   -8.990731|   -8.770177|    0.000360|   -0.000458|
|         286|   -8.994988|   -8.775917|    0.000360|   -0.000458|
|         287|   -8.999254|   -8.781649|    0.000360|   -0.000458|
|         288|   -9.003531|   -8.787378|    0.000360|   -0.000458|
|         289|   -9.007820|   -8.793111|    0.000360|   -0.000458|
|         290|   -9.012123|   -8.798856|    0.000360|   -0.000458|
|         291|   -9.016442|   -8.804622|    0.000360|   -0.000458|
|         292|   -9.020779|   -8.810414|    0.000360|   -0.000458|
|         293|   -9.025133|   -8.816237|    0.000360|   -0.000458|
|         294|   -9.029508|   -8.822094|    0.000360|   -0.000458|
|         295|   -9.033902|   -8.827986|    0.000360|   -0.000457|
|         296|   -9.038316|   -8.833911|    0.000360|   -0.000457|
|         297|   -9.042751|   -8.839867|    0.000361|   -0.000457|
|         298|   -9.047205|   -8.845851|    0.000361|   -0.000457|
|         299|   -9.051680|   -8.851861|    0.000361|   -0.000457|
|         300|   -9.056176|   -8.857895|    0.000361|   -0.000457|
|         301|   -9.060692|   -8.863952|    0.000361|   -0.000457|
|         302|   -9.065230|   -8.870033|    0.000361|   -0.000457|
|         303|   -9.069791|   -8.876140|    0.000362|   -0.000457|
|         304|   -9.074375|   -8.882275|    0.000362|   -0.000457|
|         305|   -9.078984|   -8.888442|    0.000362|   -0.000457|
|         306|   -9.083620|   -8.894644|    0.000363|   -0.000457|
|         307|   -9.088283|   -8.900883|    0.000363|   -0.000457|
|         308|   -9.092974|   -8.907161|    0.000363|   -0.000457|
|         309|   -9.097695|   -8.913479|    0.000364|   -0.000457|
|         310|   -9.102446|   -8.919836|    0.000364|   -0.000457|
|         311|   -9.107227|   -8.926229|    0.000364|   -0.000457|
|         312|   -9.112038|   -8.932654|    0.000365|   -0.000456|
|         313|   -9.116879|   -8.939108|    0.000365|   -0.000456|
|         314|   -9.121750|   -8.945586|    0.000366|   -0.000456|
|         315|   -9.126650|   -8.952082|    0.000366|   -0.000456|
|         316|   -9.131578|   -8.958593|    0.000367|   -0.000456|
|         317|   -9.136535|   -8.965116|    0.000367|   -0.000456|
|         318|   -9.141520|   -8.971647|    0.000367|   -0.000456|
|         319|   -9.146533|   -8.978188|    0.000368|   -0.000456|
|         320|   -9.151574|   -8.984738|    0.000368|   -0.000456|
|         321|   -9.156643|   -8.991299|    0.000369|   -0.000456|
|         322|   -9.161740|   -8.997874|    0.000370|   -0.000456|
|         323|   -9.166865|   -9.004465|    0.000370|   -0.000456|
|         324|   -9.172019|   -9.011078|    0.000371|   -0.000456|
|         325|   -9.177202|   -9.017715|    0.000371|   -0.000456|
|         326|   -9.182415|   -9.024380|    0.000372|   -0.000456|
|         327|   -9.187658|   -9.031074|    0.000372|   -0.000456|
|         328|   -9.192931|   -9.037801|    0.000373|   -0.000456|
|         329|   -9.198234|   -9.044562|    0.000373|   -0.000456|
|         330|   -9.203568|   -9.051357|    0.000374|   -0.000456|
|         331|   -9.208932|   -9.058187|    0.000375|   -0.000456|
|         332|   -9.214328|   -9.065054|    0.000375|   -0.000456|
|         333|   -9.219754|   -9.071955|    0.000376|   -0.000455|
|         334|   -9.225212|   -9.078893|    0.000376|   -0.000455|
|         335|   -9.230702|   -9.085866|    0.000377|   -0.000455|
|         336|   -9.236224|   -9.092876|    0.000378|   -0.000455|
|         337|   -9.241778|   -9.099921|    0.000378|   -0.000455|
|         338|   -9.247366|   -9.107002|    0.000379|   -0.000455|
|         339|   -9.252987|   -9.114118|    0.000380|   -0.000455|
|         340|   -9.258642|   -9.121269|    0.000380|   -0.000455|
|         341|   -9.264330|   -9.128453|    0.000381|   -0.000455|
|         342|   -9.270054|   -9.135670|    0.000382|   -0.000455|
|         343|   -9.275811|   -9.142915|    0.000382|   -0.000455|
|         344|   -9.281604|   -9.150188|    0.000383|   -0.000455|
|         345|   -9.287430|   -9.157485|    0.000384|   -0.000455|
|         346|   -9.293291|   -9.164802|    0.000384|   -0.000455|
|         347|   -9.299187|   -9.172137|    0.000385|   -0.000455|
|         348|   -9.305115|   -9.179487|    0.000386|   -0.000455|
|         349|   -9.311078|   -9.186848|    0.000386|   -0.000455|
|         350|   -9.317074|   -9.194221|    0.000387|   -0.000455|
|         351|   -9.323103|   -9.201602|    0.000388|   -0.000455|
|         352|   -9.329164|   -9.208992|    0.000389|   -0.000455|
|         353|   -9.335259|   -9.216392|    0.000389|   -0.000455|
|         354|   -9.341386|   -9.223803|    0.000390|   -0.000455|
|         355|   -9.347546|   -9.231226|    0.000391|   -0.000455|
|         356|   -9.353739|   -9.238664|    0.000391|   -0.000455|
|         357|   -9.359965|   -9.246119|    0.000392|   -0.000455|
|         358|   -9.366223|   -9.253595|    0.000393|   -0.000455|
|         359|   -9.372515|   -9.261095|    0.000393|   -0.000455|
|         360|   -9.378840|   -9.268620|    0.000394|   -0.000455|
|         361|   -9.385197|   -9.276174|    0.000395|   -0.000454|
|         362|   -9.391588|   -9.283758|    0.000396|   -0.000454|
|         363|   -9.398012|   -9.291373|    0.000396|   -0.000454|
|         364|   -9.404470|   -9.299022|    0.000397|   -0.000454|
|         365|   -9.410960|   -9.306706|    0.000398|   -0.000454|
|         366|   -9.417484|   -9.314423|    0.000398|   -0.000454|
|         367|   -9.424042|   -9.322175|    0.000399|   -0.000454|
|         368|   -9.430633|   -9.329962|    0.000400|   -0.000454|
|         369|   -9.437258|   -9.337782|    0.000400|   -0.000454|
|         370|   -9.443916|   -9.345636|    0.000401|   -0.000454|
|         371|   -9.450608|   -9.353521|    0.000402|   -0.000454|
|         372|   -9.457333|   -9.361438|    0.000403|   -0.000454|
|         373|   -9.464093|   -9.369384|    0.000403|   -0.000454|
|         374|   -9.470886|   -9.377357|    0.000404|   -0.000454|
|         375|   -9.477713|   -9.385356|    0.000405|   -0.000454|
|         376|   -9.484574|   -9.393378|    0.000405|   -0.000454|
|         377|   -9.491469|   -9.401420|    0.000406|   -0.000454|
|         378|   -9.498397|   -9.409479|    0.000407|   -0.000454|
|         379|   -9.505359|   -9.417555|    0.000407|   -0.000454|
|         380|   -9.512355|   -9.425643|    0.000408|   -0.000454|
|         381|   -9.519384|   -9.433742|    0.000409|   -0.000454|
|         382|   -9.526446|   -9.441851|    0.000409|   -0.000454|
|         383|   -9.533540|   -9.449967|    0.000410|   -0.000454|
|         384|   -9.540668|   -9.458091|    0.000411|   -0.000454|
|         385|   -9.547829|   -9.466222|    0.000411|   -0.000454|
|         386|   -9.555023|   -9.474360|    0.000412|   -0.000454|
|         387|   -9.562249|   -9.482507|    0.000413|   -0.000454|
|         388|   -9.569508|   -9.490664|    0.000413|   -0.000454|
|         389|   -9.576799|   -9.498832|    0.000414|   -0.000454|
|         390|   -9.584124|   -9.507015|    0.000415|   -0.000454|
|         391|   -9.591481|   -9.515213|    0.000415|   -0.000454|
|         392|   -9.598871|   -9.523431|    0.000416|   -0.000454|
|         393|   -9.606294|   -9.531669|    0.000417|   -0.000454|
|         394|   -9.613750|   -9.539930|    0.000417|   -0.000454|
|         395|   -9.621239|   -9.548216|    0.000418|   -0.000454|
|         396|   -9.628761|   -9.556529|    0.000418|   -0.000454|
|         397|   -9.636317|   -9.564870|    0.000419|   -0.000454|
|         398|   -9.643905|   -9.573239|    0.000420|   -0.000454|
|         399|   -9.651527|   -9.581637|    0.000420|   -0.000454|
|         400|   -9.659181|   -9.590064|    0.000421|   -0.000454|
|         401|   -9.666869|   -9.598520|    0.000421|   -0.000454|
|         402|   -9.674589|   -9.607004|    0.000422|   -0.000454|
|         403|   -9.682343|   -9.615514|    0.000423|   -0.000454|
|         404|   -9.690129|   -9.624050|    0.000423|   -0.000454|
|         405|   -9.697949|   -9.632609|    0.000424|   -0.000454|
|         406|   -9.705801|   -9.641189|    0.000424|   -0.000454|
|         407|   -9.713687|   -9.649789|    0.000425|   -0.000454|
|         408|   -9.721605|   -9.658406|    0.000426|   -0.000454|
|         409|   -9.729555|   -9.667038|    0.000426|   -0.000454|
|         410|   -9.737539|   -9.675683|    0.000427|   -0.000454|
|         411|   -9.745555|   -9.684338|    0.000427|   -0.000454|
|         412|   -9.753603|   -9.693001|    0.000428|   -0.000454|
|         413|   -9.761684|   -9.701670|    0.000428|   -0.000454|
|         414|   -9.769797|   -9.710344|    0.000429|   -0.000453|
|         415|   -9.777943|   -9.719023|    0.000429|   -0.000453|
|         416|   -9.786121|   -9.727704|    0.000430|   -0.000453|
|         417|   -9.794331|   -9.736388|    0.000431|   -0.000453|
|         418|   -9.802573|   -9.745075|    0.000431|   -0.000453|
|         419|   -9.810848|   -9.753765|    0.000432|   -0.000453|
|         420|   -9.819155|   -9.762460|    0.000432|   -0.000453|
|         421|   -9.827495|   -9.771160|    0.000433|   -0.000453|
|         422|   -9.835867|   -9.779868|    0.000433|   -0.000453|
|         423|   -9.844271|   -9.788585|    0.000434|   -0.000453|
|         424|   -9.852708|   -9.797312|    0.000434|   -0.000453|
|         425|   -9.861177|   -9.806052|    0.000435|   -0.000453|
|         426|   -9.869680|   -9.814807|    0.000435|   -0.000453|
|         427|   -9.878214|   -9.823577|    0.000436|   -0.000453|
|         428|   -9.886782|   -9.832365|    0.000436|   -0.000453|
|         429|   -9.895382|   -9.841172|    0.000436|   -0.000453|
|         430|   -9.904015|   -9.849998|    0.000437|   -0.000453|
|         431|   -9.912681|   -9.858843|    0.000437|   -0.000453|
|         432|   -9.921379|   -9.867708|    0.000438|   -0.000453|
|         433|   -9.930109|   -9.876593|    0.000438|   -0.000453|
|         434|   -9.938873|   -9.885496|    0.000439|   -0.000453|
|         435|   -9.947668|   -9.894418|    0.000439|   -0.000453|
|         436|   -9.956496|   -9.903355|    0.000440|   -0.000453|
|         437|   -9.965356|   -9.912307|    0.000440|   -0.000453|
|         438|   -9.974248|   -9.921273|    0.000441|   -0.000453|
|         439|   -9.983173|   -9.930249|    0.000441|   -0.000453|
|         440|   -9.992129|   -9.939235|    0.000441|   -0.000453|
|         441|  -10.001117|   -9.948228|    0.000442|   -0.000453|
|         442|  -10.010137|   -9.957225|    0.000442|   -0.000453|
|         443|  -10.019188|   -9.966226|    0.000443|   -0.000453|
|         444|  -10.028271|   -9.975228|    0.000443|   -0.000453|
|         445|  -10.037386|   -9.984230|    0.000443|   -0.000453|
|         446|  -10.046532|   -9.993230|    0.000444|   -0.000453|
|         447|  -10.055709|  -10.002228|    0.000444|   -0.000453|
|         448|  -10.064918|  -10.011222|    0.000445|   -0.000453|
|         449|  -10.074158|  -10.020213|    0.000445|   -0.000453|
|         450|  -10.083429|  -10.029200|    0.000445|   -0.000453|
|         451|  -10.092732|  -10.038184|    0.000446|   -0.000453|
|         452|  -10.102066|  -10.047165|    0.000446|   -0.000453|
|         453|  -10.111431|  -10.056145|    0.000446|   -0.000453|
|         454|  -10.120828|  -10.065123|    0.000447|   -0.000453|
|         455|  -10.130255|  -10.074102|    0.000447|   -0.000453|
|         456|  -10.139714|  -10.083082|    0.000447|   -0.000453|
|         457|  -10.149204|  -10.092065|    0.000448|   -0.000453|
|         458|  -10.158725|  -10.101052|    0.000448|   -0.000453|
|         459|  -10.168278|  -10.110043|    0.000448|   -0.000453|
|         460|  -10.177861|  -10.119040|    0.000449|   -0.000453|
|         461|  -10.187475|  -10.128043|    0.000449|   -0.000453|
|         462|  -10.197121|  -10.137053|    0.000449|   -0.000453|
|         463|  -10.206797|  -10.146070|    0.000450|   -0.000453|
|         464|  -10.216503|  -10.155094|    0.000450|   -0.000453|
|         465|  -10.226240|  -10.164124|    0.000450|   -0.000453|
|         466|  -10.236008|  -10.173160|    0.000451|   -0.000453|
|         467|  -10.245805|  -10.182200|    0.000451|   -0.000453|
|         468|  -10.255632|  -10.191245|    0.000451|   -0.000453|
|         469|  -10.265489|  -10.200292|    0.000451|   -0.000453|
|         470|  -10.275376|  -10.209340|    0.000452|   -0.000453|
|         471|  -10.285292|  -10.218388|    0.000452|   -0.000453|
|         472|  -10.295237|  -10.227435|    0.000452|   -0.000453|
|         473|  -10.305211|  -10.236479|    0.000453|   -0.000453|
|         474|  -10.315214|  -10.245517|    0.000453|   -0.000453|
|         475|  -10.325245|  -10.254551|    0.000453|   -0.000453|
|         476|  -10.335305|  -10.263577|    0.000453|   -0.000453|
|         477|  -10.345392|  -10.272595|    0.000454|   -0.000453|
|         478|  -10.355508|  -10.281604|    0.000454|   -0.000453|
|         479|  -10.365652|  -10.290604|    0.000454|   -0.000453|
|         480|  -10.375824|  -10.299593|    0.000454|   -0.000453|
|         481|  -10.386023|  -10.308573|    0.000455|   -0.000453|
|         482|  -10.396250|  -10.317542|    0.000455|   -0.000453|
|         483|  -10.406504|  -10.326503|    0.000455|   -0.000453|
|         484|  -10.416785|  -10.335453|    0.000455|   -0.000453|
|         485|  -10.427093|  -10.344395|    0.000456|   -0.000453|
|         486|  -10.437429|  -10.353328|    0.000456|   -0.000453|
|         487|  -10.447791|  -10.362254|    0.000456|   -0.000453|
|         488|  -10.458179|  -10.371173|    0.000456|   -0.000453|
|         489|  -10.468595|  -10.380085|    0.000456|   -0.000453|
|         490|  -10.479036|  -10.388992|    0.000457|   -0.000453|
|         491|  -10.489504|  -10.397893|    0.000457|   -0.000453|
|         492|  -10.499997|  -10.406790|    0.000457|   -0.000453|
|         493|  -10.510516|  -10.415683|    0.000457|   -0.000453|
|         494|  -10.521061|  -10.424571|    0.000457|   -0.000453|
|         495|  -10.531631|  -10.433455|    0.000458|   -0.000453|
|         496|  -10.542225|  -10.442334|    0.000458|   -0.000453|
|         497|  -10.552845|  -10.451209|    0.000458|   -0.000453|
|         498|  -10.563489|  -10.460079|    0.000458|   -0.000453|
|         499|  -10.574156|  -10.468943|    0.000458|   -0.000453|
|         500|  -10.584848|  -10.477800|    0.000459|   -0.000453|
+-----------------------------------------------------------------------+
|        File Writing Summary       |              Filename             |
+-----------------------------------------------------------------------+
|SU2 restart                        |restart_flow.dat                   |
|Paraview                           |flow.vtu                           |
|Paraview surface                   |surface_flow.vtu                   |
|CSV file                           |surface_flow.csv                   |
+-----------------------------------------------------------------------+
+----------------------------------------------------------------+
|  Inner_Iter|    rms[Rho]|   rms[RhoE]|          CL|          CD|
+----------------------------------------------------------------+
|         501|  -10.595563|  -10.486651|    0.000459|   -0.000453|
|         502|  -10.606301|  -10.495495|    0.000459|   -0.000453|
|         503|  -10.617062|  -10.504330|    0.000459|   -0.000453|
|         504|  -10.627845|  -10.513155|    0.000459|   -0.000453|
|         505|  -10.638650|  -10.521972|    0.000459|   -0.000453|
|         506|  -10.649477|  -10.530777|    0.000460|   -0.000453|
|         507|  -10.660326|  -10.539573|    0.000460|   -0.000453|
|         508|  -10.671196|  -10.548357|    0.000460|   -0.000453|
|         509|  -10.682087|  -10.557129|    0.000460|   -0.000453|
|         510|  -10.692999|  -10.565890|    0.000460|   -0.000453|
|         511|  -10.703931|  -10.574640|    0.000460|   -0.000453|
|         512|  -10.714883|  -10.583377|    0.000461|   -0.000453|
|         513|  -10.725854|  -10.592103|    0.000461|   -0.000453|
|         514|  -10.736846|  -10.600818|    0.000461|   -0.000453|
|         515|  -10.747856|  -10.609522|    0.000461|   -0.000453|
|         516|  -10.758886|  -10.618215|    0.000461|   -0.000453|
|         517|  -10.769934|  -10.626899|    0.000461|   -0.000453|
|         518|  -10.781001|  -10.635573|    0.000461|   -0.000453|
|         519|  -10.792086|  -10.644238|    0.000462|   -0.000453|
|         520|  -10.803189|  -10.652895|    0.000462|   -0.000453|
|         521|  -10.814309|  -10.661542|    0.000462|   -0.000453|
|         522|  -10.825446|  -10.670182|    0.000462|   -0.000453|
|         523|  -10.836601|  -10.678816|    0.000462|   -0.000453|
|         524|  -10.847772|  -10.687442|    0.000462|   -0.000453|
|         525|  -10.858959|  -10.696059|    0.000462|   -0.000453|
|         526|  -10.870162|  -10.704671|    0.000462|   -0.000453|
|         527|  -10.881380|  -10.713276|    0.000463|   -0.000453|
|         528|  -10.892613|  -10.721874|    0.000463|   -0.000453|
|         529|  -10.903861|  -10.730466|    0.000463|   -0.000453|
|         530|  -10.915123|  -10.739051|    0.000463|   -0.000453|
|         531|  -10.926399|  -10.747629|    0.000463|   -0.000453|
|         532|  -10.937688|  -10.756198|    0.000463|   -0.000453|
|         533|  -10.948990|  -10.764761|    0.000463|   -0.000453|
|         534|  -10.960305|  -10.773318|    0.000463|   -0.000453|
|         535|  -10.971632|  -10.781866|    0.000463|   -0.000453|
|         536|  -10.982971|  -10.790408|    0.000463|   -0.000453|
|         537|  -10.994320|  -10.798941|    0.000464|   -0.000453|
|         538|  -11.005681|  -10.807466|    0.000464|   -0.000453|
|         539|  -11.017053|  -10.815985|    0.000464|   -0.000453|
|         540|  -11.028434|  -10.824495|    0.000464|   -0.000453|
|         541|  -11.039825|  -10.832999|    0.000464|   -0.000453|
|         542|  -11.051226|  -10.841496|    0.000464|   -0.000453|
|         543|  -11.062635|  -10.849986|    0.000464|   -0.000453|
|         544|  -11.074053|  -10.858470|    0.000464|   -0.000453|
|         545|  -11.085479|  -10.866948|    0.000464|   -0.000453|
|         546|  -11.096912|  -10.875418|    0.000464|   -0.000453|
|         547|  -11.108354|  -10.883884|    0.000464|   -0.000453|
|         548|  -11.119802|  -10.892343|    0.000465|   -0.000453|
|         549|  -11.131257|  -10.900799|    0.000465|   -0.000453|
|         550|  -11.142717|  -10.909249|    0.000465|   -0.000453|
|         551|  -11.154184|  -10.917695|    0.000465|   -0.000453|
|         552|  -11.165656|  -10.926138|    0.000465|   -0.000453|
|         553|  -11.177133|  -10.934578|    0.000465|   -0.000453|
|         554|  -11.188614|  -10.943012|    0.000465|   -0.000453|
|         555|  -11.200100|  -10.951444|    0.000465|   -0.000453|
|         556|  -11.211589|  -10.959873|    0.000465|   -0.000453|
|         557|  -11.223082|  -10.968298|    0.000465|   -0.000453|
|         558|  -11.234576|  -10.976720|    0.000465|   -0.000453|
|         559|  -11.246074|  -10.985141|    0.000465|   -0.000453|
|         560|  -11.257573|  -10.993556|    0.000465|   -0.000453|
|         561|  -11.269073|  -11.001970|    0.000465|   -0.000453|
|         562|  -11.280575|  -11.010382|    0.000466|   -0.000453|
|         563|  -11.292076|  -11.018791|    0.000466|   -0.000453|
|         564|  -11.303578|  -11.027199|    0.000466|   -0.000453|
|         565|  -11.315079|  -11.035601|    0.000466|   -0.000453|
|         566|  -11.326579|  -11.044002|    0.000466|   -0.000453|
|         567|  -11.338078|  -11.052403|    0.000466|   -0.000453|
|         568|  -11.349575|  -11.060800|    0.000466|   -0.000453|
|         569|  -11.361070|  -11.069197|    0.000466|   -0.000453|
|         570|  -11.372561|  -11.077590|    0.000466|   -0.000453|
|         571|  -11.384050|  -11.085982|    0.000466|   -0.000453|
|         572|  -11.395536|  -11.094374|    0.000466|   -0.000453|
|         573|  -11.407016|  -11.102762|    0.000466|   -0.000453|
|         574|  -11.418493|  -11.111150|    0.000466|   -0.000453|
|         575|  -11.429964|  -11.119537|    0.000466|   -0.000453|
|         576|  -11.441431|  -11.127924|    0.000466|   -0.000453|
|         577|  -11.452892|  -11.136312|    0.000466|   -0.000453|
|         578|  -11.464346|  -11.144695|    0.000466|   -0.000453|
|         579|  -11.475794|  -11.153080|    0.000466|   -0.000453|
|         580|  -11.487234|  -11.161465|    0.000466|   -0.000453|
|         581|  -11.498665|  -11.169846|    0.000466|   -0.000453|
|         582|  -11.510090|  -11.178230|    0.000467|   -0.000453|
|         583|  -11.521505|  -11.186612|    0.000467|   -0.000453|
|         584|  -11.532913|  -11.194997|    0.000467|   -0.000453|
|         585|  -11.544309|  -11.203377|    0.000467|   -0.000453|
|         586|  -11.555696|  -11.211758|    0.000467|   -0.000453|
|         587|  -11.567072|  -11.220140|    0.000467|   -0.000453|
|         588|  -11.578438|  -11.228521|    0.000467|   -0.000453|
|         589|  -11.589791|  -11.236901|    0.000467|   -0.000453|
|         590|  -11.601133|  -11.245280|    0.000467|   -0.000453|
|         591|  -11.612463|  -11.253661|    0.000467|   -0.000453|
|         592|  -11.623777|  -11.262037|    0.000467|   -0.000453|
|         593|  -11.635079|  -11.270416|    0.000467|   -0.000453|
|         594|  -11.646366|  -11.278789|    0.000467|   -0.000453|
|         595|  -11.657639|  -11.287166|    0.000467|   -0.000453|
|         596|  -11.668896|  -11.295537|    0.000467|   -0.000453|
|         597|  -11.680139|  -11.303913|    0.000467|   -0.000453|
|         598|  -11.691367|  -11.312286|    0.000467|   -0.000453|
|         599|  -11.702577|  -11.320658|    0.000467|   -0.000453|
|         600|  -11.713772|  -11.329031|    0.000467|   -0.000453|
|         601|  -11.724947|  -11.337399|    0.000467|   -0.000453|
|         602|  -11.736106|  -11.345771|    0.000467|   -0.000453|
|         603|  -11.747246|  -11.354137|    0.000467|   -0.000453|
|         604|  -11.758368|  -11.362506|    0.000467|   -0.000453|
|         605|  -11.769472|  -11.370873|    0.000467|   -0.000453|
|         606|  -11.780556|  -11.379241|    0.000467|   -0.000453|
|         607|  -11.791619|  -11.387604|    0.000467|   -0.000453|
|         608|  -11.802662|  -11.395969|    0.000467|   -0.000453|
|         609|  -11.813685|  -11.404333|    0.000467|   -0.000453|
|         610|  -11.824687|  -11.412694|    0.000467|   -0.000453|
|         611|  -11.835666|  -11.421054|    0.000467|   -0.000453|
|         612|  -11.846622|  -11.429412|    0.000467|   -0.000453|
|         613|  -11.857559|  -11.437774|    0.000468|   -0.000453|
|         614|  -11.868468|  -11.446125|    0.000468|   -0.000453|
|         615|  -11.879354|  -11.454476|    0.000468|   -0.000453|
|         616|  -11.890218|  -11.462828|    0.000468|   -0.000453|
|         617|  -11.901052|  -11.471171|    0.000468|   -0.000453|
|         618|  -11.911861|  -11.479511|    0.000468|   -0.000453|
|         619|  -11.922649|  -11.487853|    0.000468|   -0.000453|
|         620|  -11.933406|  -11.496187|    0.000468|   -0.000453|
|         621|  -11.944134|  -11.504512|    0.000468|   -0.000453|
|         622|  -11.954839|  -11.512843|    0.000468|   -0.000453|
|         623|  -11.965508|  -11.521158|    0.000468|   -0.000453|
|         624|  -11.976153|  -11.529473|    0.000468|   -0.000453|
|         625|  -11.986768|  -11.537782|    0.000468|   -0.000453|
|         626|  -11.997353|  -11.546084|    0.000468|   -0.000453|
|         627|  -12.007908|  -11.554383|    0.000468|   -0.000453|
|         628|  -12.018433|  -11.562676|    0.000468|   -0.000453|
|         629|  -12.028921|  -11.570955|    0.000468|   -0.000453|
|         630|  -12.039377|  -11.579226|    0.000468|   -0.000453|
|         631|  -12.049805|  -11.587498|    0.000468|   -0.000453|
|         632|  -12.060198|  -11.595756|    0.000468|   -0.000453|
|         633|  -12.070560|  -11.604013|    0.000468|   -0.000453|
|         634|  -12.080888|  -11.612259|    0.000468|   -0.000453|
|         635|  -12.091176|  -11.620490|    0.000468|   -0.000453|
|         636|  -12.101435|  -11.628720|    0.000468|   -0.000453|
|         637|  -12.111663|  -11.636946|    0.000468|   -0.000453|
|         638|  -12.121850|  -11.645158|    0.000468|   -0.000453|
|         639|  -12.131996|  -11.653351|    0.000468|   -0.000453|
|         640|  -12.142114|  -11.661546|    0.000468|   -0.000453|
|         641|  -12.152194|  -11.669730|    0.000468|   -0.000453|
|         642|  -12.162238|  -11.677904|    0.000468|   -0.000453|
|         643|  -12.172239|  -11.686064|    0.000468|   -0.000453|
|         644|  -12.182206|  -11.694215|    0.000468|   -0.000453|
|         645|  -12.192134|  -11.702354|    0.000468|   -0.000453|
|         646|  -12.202021|  -11.710478|    0.000468|   -0.000453|
|         647|  -12.211869|  -11.718595|    0.000468|   -0.000453|
|         648|  -12.221680|  -11.726700|    0.000468|   -0.000453|
|         649|  -12.231443|  -11.734783|    0.000468|   -0.000453|
|         650|  -12.241164|  -11.742848|    0.000468|   -0.000453|
|         651|  -12.250847|  -11.750907|    0.000468|   -0.000453|
|         652|  -12.260484|  -11.758947|    0.000468|   -0.000453|
|         653|  -12.270088|  -11.766980|    0.000468|   -0.000453|
|         654|  -12.279643|  -11.774994|    0.000468|   -0.000453|
|         655|  -12.289146|  -11.782979|    0.000468|   -0.000453|
|         656|  -12.298614|  -11.790959|    0.000468|   -0.000453|
|         657|  -12.308030|  -11.798914|    0.000468|   -0.000453|
|         658|  -12.317405|  -11.806854|    0.000468|   -0.000453|
|         659|  -12.326730|  -11.814772|    0.000468|   -0.000453|
|         660|  -12.336009|  -11.822668|    0.000468|   -0.000453|
|         661|  -12.345244|  -11.830551|    0.000468|   -0.000453|
|         662|  -12.354440|  -11.838419|    0.000468|   -0.000453|
|         663|  -12.363576|  -11.846256|    0.000468|   -0.000453|
|         664|  -12.372668|  -11.854073|    0.000468|   -0.000453|
|         665|  -12.381718|  -11.861875|    0.000468|   -0.000453|
|         666|  -12.390717|  -11.869654|    0.000468|   -0.000453|
|         667|  -12.399671|  -11.877412|    0.000468|   -0.000453|
|         668|  -12.408575|  -11.885145|    0.000468|   -0.000453|
|         669|  -12.417434|  -11.892864|    0.000468|   -0.000453|
|         670|  -12.426238|  -11.900549|    0.000468|   -0.000453|
|         671|  -12.435001|  -11.908221|    0.000468|   -0.000453|
|         672|  -12.443716|  -11.915869|    0.000468|   -0.000453|
|         673|  -12.452382|  -11.923495|    0.000468|   -0.000453|
|         674|  -12.460992|  -11.931086|    0.000468|   -0.000453|
|         675|  -12.469550|  -11.938653|    0.000468|   -0.000453|
|         676|  -12.478071|  -11.946206|    0.000468|   -0.000453|
|         677|  -12.486537|  -11.953730|    0.000468|   -0.000453|
|         678|  -12.494959|  -11.961231|    0.000468|   -0.000453|
|         679|  -12.503333|  -11.968710|    0.000468|   -0.000453|
|         680|  -12.511651|  -11.976158|    0.000468|   -0.000453|
|         681|  -12.519917|  -11.983576|    0.000468|   -0.000453|
|         682|  -12.528132|  -11.990969|    0.000468|   -0.000453|
|         683|  -12.536309|  -11.998344|    0.000468|   -0.000453|
|         684|  -12.544421|  -12.005673|    0.000468|   -0.000453|
|         685|  -12.552494|  -12.012987|    0.000468|   -0.000453|
|         686|  -12.560518|  -12.020278|    0.000468|   -0.000453|
|         687|  -12.568477|  -12.027523|    0.000468|   -0.000453|
|         688|  -12.576405|  -12.034761|    0.000468|   -0.000453|
|         689|  -12.584278|  -12.041958|    0.000468|   -0.000453|
|         690|  -12.592100|  -12.049127|    0.000468|   -0.000453|
|         691|  -12.599858|  -12.056258|    0.000468|   -0.000453|
|         692|  -12.607587|  -12.063376|    0.000468|   -0.000453|
|         693|  -12.615254|  -12.070456|    0.000469|   -0.000453|
|         694|  -12.622874|  -12.077504|    0.000469|   -0.000453|
|         695|  -12.630456|  -12.084532|    0.000469|   -0.000453|
|         696|  -12.637978|  -12.091519|    0.000469|   -0.000453|
|         697|  -12.645470|  -12.098495|    0.000469|   -0.000453|
|         698|  -12.652900|  -12.105427|    0.000469|   -0.000453|
|         699|  -12.660292|  -12.112340|    0.000469|   -0.000453|
|         700|  -12.667612|  -12.119196|    0.000469|   -0.000453|
|         701|  -12.674920|  -12.126058|    0.000469|   -0.000453|
|         702|  -12.682168|  -12.132875|    0.000469|   -0.000453|
|         703|  -12.689360|  -12.139653|    0.000469|   -0.000453|
|         704|  -12.696535|  -12.146427|    0.000469|   -0.000453|
|         705|  -12.703642|  -12.153153|    0.000469|   -0.000453|
|         706|  -12.710731|  -12.159871|    0.000469|   -0.000453|
|         707|  -12.717751|  -12.166542|    0.000469|   -0.000453|
|         708|  -12.724745|  -12.173195|    0.000469|   -0.000453|
|         709|  -12.731671|  -12.179795|    0.000469|   -0.000453|
|         710|  -12.738594|  -12.186401|    0.000469|   -0.000453|
|         711|  -12.745422|  -12.192936|    0.000469|   -0.000453|
|         712|  -12.752264|  -12.199490|    0.000469|   -0.000453|
|         713|  -12.759055|  -12.206007|    0.000469|   -0.000453|
|         714|  -12.765780|  -12.212469|    0.000469|   -0.000453|
|         715|  -12.772490|  -12.218930|    0.000469|   -0.000453|
|         716|  -12.779157|  -12.225360|    0.000469|   -0.000453|
|         717|  -12.785778|  -12.231746|    0.000469|   -0.000453|
|         718|  -12.792367|  -12.238121|    0.000469|   -0.000453|
|         719|  -12.798919|  -12.244468|    0.000469|   -0.000453|
|         720|  -12.805417|  -12.250773|    0.000469|   -0.000453|
|         721|  -12.811901|  -12.257065|    0.000469|   -0.000453|
|         722|  -12.818361|  -12.263348|    0.000469|   -0.000453|
|         723|  -12.824765|  -12.269583|    0.000469|   -0.000453|
|         724|  -12.831153|  -12.275817|    0.000469|   -0.000453|
|         725|  -12.837454|  -12.281967|    0.000469|   -0.000453|
|         726|  -12.843790|  -12.288155|    0.000469|   -0.000453|
|         727|  -12.850028|  -12.294265|    0.000469|   -0.000453|
|         728|  -12.856303|  -12.300408|    0.000469|   -0.000453|
|         729|  -12.862524|  -12.306512|    0.000469|   -0.000453|
|         730|  -12.868702|  -12.312577|    0.000469|   -0.000453|
|         731|  -12.874853|  -12.318622|    0.000469|   -0.000453|
|         732|  -12.880986|  -12.324654|    0.000469|   -0.000453|
|         733|  -12.887072|  -12.330652|    0.000469|   -0.000453|
|         734|  -12.893154|  -12.336646|    0.000469|   -0.000453|
|         735|  -12.899198|  -12.342607|    0.000469|   -0.000453|
|         736|  -12.905220|  -12.348558|    0.000469|   -0.000453|
|         737|  -12.911201|  -12.354471|    0.000469|   -0.000453|
|         738|  -12.917178|  -12.360383|    0.000469|   -0.000453|
|         739|  -12.923119|  -12.366270|    0.000469|   -0.000453|
|         740|  -12.929034|  -12.372128|    0.000469|   -0.000453|
|         741|  -12.934944|  -12.377985|    0.000469|   -0.000453|
|         742|  -12.940813|  -12.383807|    0.000469|   -0.000453|
|         743|  -12.946681|  -12.389631|    0.000469|   -0.000453|
|         744|  -12.952495|  -12.395411|    0.000469|   -0.000453|
|         745|  -12.958334|  -12.401217|    0.000469|   -0.000453|
|         746|  -12.964117|  -12.406971|    0.000469|   -0.000453|
|         747|  -12.969886|  -12.412715|    0.000469|   -0.000453|
|         748|  -12.975635|  -12.418439|    0.000469|   -0.000453|
|         749|  -12.981369|  -12.424155|    0.000469|   -0.000453|
|         750|  -12.987101|  -12.429868|    0.000469|   -0.000453|
+-----------------------------------------------------------------------+
|        File Writing Summary       |              Filename             |
+-----------------------------------------------------------------------+
|SU2 restart                        |restart_flow.dat                   |
|Paraview                           |flow.vtu                           |
|Paraview surface                   |surface_flow.vtu                   |
|CSV file                           |surface_flow.csv                   |
+-----------------------------------------------------------------------+
+----------------------------------------------------------------+
|  Inner_Iter|    rms[Rho]|   rms[RhoE]|          CL|          CD|
+----------------------------------------------------------------+
|         751|  -12.992801|  -12.435554|    0.000469|   -0.000453|
|         752|  -12.998452|  -12.441196|    0.000469|   -0.000453|
|         753|  -13.004159|  -12.446894|    0.000469|   -0.000453|

----------------------------- Solver Exit -------------------------------
All convergence criteria satisfied.
+-----------------------------------------------------------------------+
|      Convergence Field     |     Value    |   Criterion  |  Converged |
+-----------------------------------------------------------------------+
|                    rms[Rho]|      -13.0042|         < -13|         Yes|
+-----------------------------------------------------------------------+
-------------------------------------------------------------------------
+-----------------------------------------------------------------------+
|        File Writing Summary       |              Filename             |
+-----------------------------------------------------------------------+
|SU2 restart                        |restart_flow.dat                   |
|Paraview                           |flow.vtu                           |
|Paraview surface                   |surface_flow.vtu                   |
|CSV file                           |surface_flow.csv                   |
+-----------------------------------------------------------------------+

------------------------- Solver Postprocessing -------------------------
Deleted CNumerics container.
Deleted CIntegration container.
Deleted CSolver container.
Deleted CIteration container.
Deleted CInterpolator container.
Deleted CInterface container.
Deleted CGeometry container.
Deleted CFreeFormDefBox class.
Deleted CSurfaceMovement class.
Deleted CVolumetricMovement class.
Deleted CConfig container.
Deleted nInst container.
Deleted COutput class.
-------------------------------------------------------------------------

------------------------- Exit Success (SU2_CFD) ------------------------

