
-------------------------------------------------------------------------
|    ___ _   _ ___                                                      |
|   / __| | | |_  )   Release 7.0.5 "Blackbird"                         |
|   \__ \ |_| |/ /                                                      |
|   |___/\___//___|   Suite (Computational Fluid Dynamics Code)         |
|                                                                       |
-------------------------------------------------------------------------
| SU2 Project Website: https://su2code.github.io                        |
|                                                                       |
| The SU2 Project is maintained by the SU2 Foundation                   |
| (http://su2foundation.org)                                            |
-------------------------------------------------------------------------
| Copyright 2012-2020, SU2 Contributors                                 |
|                                                                       |
| SU2 is free software; you can redistribute it and/or                  |
| modify it under the terms of the GNU Lesser General Public            |
| License as published by the Free Software Foundation; either          |
| version 2.1 of the License, or (at your option) any later version.    |
|                                                                       |
| SU2 is distributed in the hope that it will be useful,                |
| but WITHOUT ANY WARRANTY; without even the implied warranty of        |
| MERCHANTABILITY or FITNESS FOR A PARTICULAR PURPOSE. See the GNU      |
| Lesser General Public License for more details.                       |
|                                                                       |
| You should have received a copy of the GNU Lesser General Public      |
| License along with SU2. If not, see <http://www.gnu.org/licenses/>.   |
-------------------------------------------------------------------------

Parsing config file for zone 0

----------------- Physical Case Definition ( Zone 0 ) -------------------
Compressible Euler equations.
Mach number: 0.15.
Angle of attack (AoA): 0.5 deg, and angle of sideslip (AoS): 0 deg.
No restart solution, use the values at infinity (freestream).
Non-Dimensional simulation (P=1.0, Rho=1.0, T=1.0 at the farfield).
The reference area is 1 m^2.
The semi-span will be computed using the max y(3D) value.
The reference length is 1 m.
Reference origin for moment evaluation is (0.25, 0, 0).
Surface(s) where the force coefficients are evaluated: airfoil.

Surface(s) plotted in the output file: airfoil.
Surface(s) affected by the design variables: airfoil.
Input mesh file name: mesh_NACA0012_inv.su2

--------------- Space Numerical Integration ( Zone 0 ) ------------------
Jameson-Schmidt-Turkel scheme (2nd order in space) for the flow inviscid terms.
JST viscous coefficients (2nd & 4th): 0.5, 0.02.
The method includes a grid stretching correction (p = 0.3).
Gradient for upwind reconstruction: Green-Gauss.
Gradient for viscous and source terms: Green-Gauss.

--------------- Time Numerical Integration  ( Zone 0 ) ------------------
Local time stepping (steady state simulation).
Euler implicit method for the flow equations.
FGMRES is used for solving the linear system.
Using a LU-SGS preconditioning.
Convergence criteria of the linear solver: 0.0001.
Max number of linear iterations: 2.
V Multigrid Cycle, with 2 multigrid levels.
Damping factor for the residual restriction: 1.
Damping factor for the correction prolongation: 1.
No CFL adaptation.
+-------------------------------------------+
|  MG Level| Presmooth|PostSmooth|CorrectSmo|
+-------------------------------------------+
|         0|         1|         0|         0|
|         1|         2|         0|         0|
|         2|         3|         0|         0|
+-------------------------------------------+
Courant-Friedrichs-Lewy number:       10

------------------ Convergence Criteria  ( Zone 0 ) ---------------------
Maximum number of solver subiterations: 1000.
Begin convergence monitoring at iteration 10.
Residual minimum value: 1e-13.
Cauchy series min. value: 1e-06.
Number of Cauchy elements: 100.
Begin windowed time average at iteration 0.

-------------------- Output Information ( Zone 0 ) ----------------------
Writing solution files every 250 iterations.
Writing the convergence history file every 1 inner iterations.
Writing the screen convergence history every 1 inner iterations.
The tabular file format is CSV (.csv).
Convergence history file name: history_direct.
Forces breakdown file name: forces_breakdown.dat.
Surface file name: surface_flow.
Volume file name: flow.
Restart file name: restart_flow.dat.

------------- Config File Boundary Information ( Zone 0 ) ---------------
+-----------------------------------------------------------------------+
|                        Marker Type|                        Marker Name|
+-----------------------------------------------------------------------+
|                         Euler wall|                            airfoil|
+-----------------------------------------------------------------------+
|                          Far-field|                           farfield|
+-----------------------------------------------------------------------+

-------------------- Output Preprocessing ( Zone 0 ) --------------------
Screen output fields: INNER_ITER, RMS_DENSITY, RMS_ENERGY, LIFT, DRAG
History output group(s): ITER, RMS_RES, AERO_COEFF
Convergence field(s): RMS_DENSITY
Warning: No (valid) fields chosen for time convergence monitoring. Time convergence monitoring inactive.
Volume output fields: COORDINATES, SOLUTION, PRIMITIVE

------------------- Geometry Preprocessing ( Zone 0 ) -------------------
Two dimensional problem.
5233 grid points.
10216 volume elements.
2 surface markers.
200 boundary elements in index 0 (Marker = airfoil).
50 boundary elements in index 1 (Marker = farfield).
10216 triangles.
Setting point connectivity.
Renumbering points (Reverse Cuthill McKee Ordering).
Recomputing point connectivity.
Setting element connectivity.
Checking the numerical grid orientation.
Identifying edges and vertices.
Computing centers of gravity.
Setting the control volume structure.
Area of the computational grid: 1253.25.
Searching for the closest normal neighbors to the surfaces.
Storing a mapping from global to local point index.
Compute the surface curvature.
Max K: 7835.1. Mean K: 34.8252. Standard deviation K: 494.448.
Checking for periodicity.
Computing mesh quality statistics for the dual control volumes.
+--------------------------------------------------------------+
|           Mesh Quality Metric|        Minimum|        Maximum|
+--------------------------------------------------------------+
|    Orthogonality Angle (deg.)|        62.6714|        89.7089|
|     CV Face Area Aspect Ratio|        1.00001|        7.18337|
|           CV Sub-Volume Ratio|        1.00285|        6.47826|
+--------------------------------------------------------------+
Setting the multigrid structure.
+-------------------------------------------+
|  MG Level|       CVs|Aggl. Rate|       CFL|
+-------------------------------------------+
|         0|      5233|    1/1.00|        10|
|         1|      1533|    1/3.41|   8.11871|
|         2|       443|    1/3.46|    6.5465|
+-------------------------------------------+
Finding max control volume width.
Wetted area = 2.03916 m.
Area projection in the x-plane = 0.119981 m, y-plane = 0.999845 m.
Max. coordinate in the x-direction = 1 m, y-direction = 0.0600055 m.
Min. coordinate in the x-direction = 0 m, y-direction = -0.0600055 m.
Checking if Euler & Symmetry markers are straight/plane:
Boundary marker airfoil is NOT a single straight.
Computing wall distances.

-------------------- Solver Preprocessing ( Zone 0 ) --------------------
Inviscid flow: Computing density based on free-stream
temperature and pressure using the ideal gas law.
Force coefficients computed using free-stream values.

-- Models:
+------------------------------------------------------------------------------+
|          Viscosity Model|        Conductivity Model|              Fluid Model|
+------------------------------------------------------------------------------+
|                        -|                         -|             STANDARD_AIR|
+------------------------------------------------------------------------------+
-- Fluid properties:
+------------------------------------------------------------------------------+
|                  Name|    Dim. value|    Ref. value|      Unit|Non-dim. value|
+------------------------------------------------------------------------------+
|          Gas Constant|       287.058|       287.058|  N.m/kg.K|             1|
|      Spec. Heat Ratio|             -|             -|         -|           1.4|
+------------------------------------------------------------------------------+
-- Initial and free-stream conditions:
+------------------------------------------------------------------------------+
|                  Name|    Dim. value|    Ref. value|      Unit|Non-dim. value|
+------------------------------------------------------------------------------+
|       Static Pressure|        101325|        101325|        Pa|             1|
|               Density|       1.22498|       1.22498|    kg/m^3|             1|
|           Temperature|        288.15|        288.15|         K|             1|
|          Total Energy|        208092|       82715.8|   m^2/s^2|       2.51575|
|            Velocity-X|       51.0426|       287.603|       m/s|      0.177476|
|            Velocity-Y|      0.445442|       287.603|       m/s|    0.00154881|
|    Velocity Magnitude|       51.0446|       287.603|       m/s|      0.177482|
+------------------------------------------------------------------------------+
|           Mach Number|             -|             -|         -|          0.15|
+------------------------------------------------------------------------------+
Initialize Jacobian structure (Euler). MG level: 0.
Initialize Jacobian structure (Euler). MG level: 1.
Initialize Jacobian structure (Euler). MG level: 2.

------------------- Numerics Preprocessing ( Zone 0 ) -------------------

----------------- Integration Preprocessing ( Zone 0 ) ------------------

------------------- Iteration Preprocessing ( Zone 0 ) ------------------
Euler/Navier-Stokes/RANS fluid iteration.

------------------------------ Begin Solver -----------------------------

Simulation Run using the Single-zone Driver
+----------------------------------------------------------------+
|  Inner_Iter|    rms[Rho]|   rms[RhoE]|          CL|          CD|
+----------------------------------------------------------------+
|           0|   -4.317832|   -3.771814|    0.248643|    0.954130|
|           1|   -4.440902|   -3.887894|    0.180202|   -0.061006|
|           2|   -4.551662|   -4.001989|   -0.025975|   -0.171603|
|           3|   -4.541436|   -3.985431|   -0.114981|    0.002491|
|           4|   -4.469775|   -3.921002|    0.004267|    0.118265|
|           5|   -4.574885|   -4.025447|    0.137002|    0.058124|
|           6|   -4.559747|   -4.008938|    0.089725|   -0.045875|
|           7|   -4.675365|   -4.127819|   -0.033950|   -0.035424|
|           8|   -4.744574|   -4.193413|   -0.027366|    0.041034|
|           9|   -4.816280|   -4.268871|    0.073981|    0.040158|
|          10|   -5.029936|   -4.477690|    0.097078|   -0.019968|
|          11|   -4.986194|   -4.437179|    0.030364|   -0.026036|
|          12|   -5.221266|   -4.673045|   -0.003941|    0.016232|
|          13|   -5.197456|   -4.645991|    0.034526|    0.023924|
|          14|   -5.307479|   -4.760733|    0.073074|   -0.007754|
|          15|   -5.455352|   -4.902348|    0.059406|   -0.018059|
|          16|   -5.438118|   -4.890233|    0.027446|    0.004524|
|          17|   -5.672694|   -5.122639|    0.027381|    0.015667|
|          18|   -5.632252|   -5.082041|    0.051643|    0.000374|
|          19|   -5.775182|   -5.229850|    0.061018|   -0.010558|
|          20|   -5.793296|   -5.244815|    0.047807|   -0.001485|
|          21|   -5.833393|   -5.288405|    0.037659|    0.007683|
|          22|   -5.931788|   -5.381722|    0.044745|    0.002581|
|          23|   -5.842514|   -5.297209|    0.054570|   -0.004270|
|          24|   -6.013338|   -5.465725|    0.053272|   -0.001738|
|          25|   -5.903805|   -5.356764|    0.046853|    0.002981|
|          26|   -6.028466|   -5.483634|    0.046195|    0.001778|
|          27|   -6.025245|   -5.477633|    0.050662|   -0.001540|
|          28|   -6.041116|   -5.496630|    0.052859|   -0.001114|
|          29|   -6.157513|   -5.615455|    0.050922|    0.001165|
|          30|   -6.114907|   -5.573840|    0.048939|    0.001071|
|          31|   -6.227296|   -5.687100|    0.049687|   -0.000647|
|          32|   -6.232837|   -5.688647|    0.051498|   -0.000943|
|          33|   -6.265273|   -5.726287|    0.052045|    0.000245|
|          34|   -6.323019|   -5.789520|    0.051310|    0.000782|
|          35|   -6.331266|   -5.796640|    0.050684|    0.000034|
|          36|   -6.368097|   -5.831822|    0.051060|   -0.000649|
|          37|   -6.384155|   -5.847128|    0.051947|   -0.000397|
|          38|   -6.402062|   -5.866901|    0.052472|    0.000242|
|          39|   -6.427252|   -5.893061|    0.052387|    0.000350|
|          40|   -6.442675|   -5.908152|    0.052119|   -0.000080|
|          41|   -6.460211|   -5.925473|    0.052219|   -0.000348|
|          42|   -6.472814|   -5.937873|    0.052704|   -0.000154|
|          43|   -6.488597|   -5.953634|    0.053153|    0.000110|
|          44|   -6.512208|   -5.977154|    0.053273|    0.000087|
|          45|   -6.526687|   -5.991234|    0.053175|   -0.000111|
|          46|   -6.546074|   -6.010631|    0.053175|   -0.000181|
|          47|   -6.568859|   -6.033252|    0.053413|   -0.000078|
|          48|   -6.585628|   -6.049704|    0.053724|   -0.000001|
|          49|   -6.605825|   -6.070530|    0.053889|   -0.000053|
|          50|   -6.622776|   -6.088028|    0.053900|   -0.000139|
|          51|   -6.638512|   -6.103688|    0.053912|   -0.000144|
|          52|   -6.660277|   -6.125285|    0.054044|   -0.000090|
|          53|   -6.681928|   -6.146640|    0.054267|   -0.000066|
|          54|   -6.701784|   -6.166455|    0.054461|   -0.000102|
|          55|   -6.721568|   -6.186302|    0.054564|   -0.000145|
|          56|   -6.741544|   -6.206017|    0.054633|   -0.000141|
|          57|   -6.763770|   -6.227751|    0.054751|   -0.000107|
|          58|   -6.787553|   -6.250938|    0.054933|   -0.000092|
|          59|   -6.810771|   -6.273517|    0.055118|   -0.000111|
|          60|   -6.833438|   -6.295538|    0.055257|   -0.000133|
|          61|   -6.856135|   -6.317577|    0.055359|   -0.000131|
|          62|   -6.878974|   -6.339753|    0.055471|   -0.000114|
|          63|   -6.901922|   -6.361999|    0.055613|   -0.000106|
|          64|   -6.925046|   -6.384396|    0.055764|   -0.000114|
|          65|   -6.948694|   -6.407465|    0.055893|   -0.000125|
|          66|   -6.972384|   -6.430901|    0.055998|   -0.000126|
|          67|   -6.995310|   -6.453908|    0.056100|   -0.000121|
|          68|   -7.017755|   -6.476677|    0.056214|   -0.000120|
|          69|   -7.039698|   -6.499178|    0.056338|   -0.000126|
|          70|   -7.060704|   -6.521135|    0.056455|   -0.000131|
|          71|   -7.080807|   -6.542665|    0.056559|   -0.000132|
|          72|   -7.100194|   -6.563745|    0.056659|   -0.000131|
|          73|   -7.119401|   -6.584575|    0.056765|   -0.000133|
|          74|   -7.139035|   -6.605635|    0.056878|   -0.000138|
|          75|   -7.159324|   -6.627293|    0.056990|   -0.000140|
|          76|   -7.180535|   -6.650027|    0.057097|   -0.000140|
|          77|   -7.202775|   -6.673996|    0.057199|   -0.000140|
|          78|   -7.225599|   -6.698687|    0.057303|   -0.000141|
|          79|   -7.248429|   -6.723505|    0.057409|   -0.000144|
|          80|   -7.270941|   -6.748223|    0.057514|   -0.000145|
|          81|   -7.293014|   -6.772820|    0.057614|   -0.000145|
|          82|   -7.314553|   -6.797213|    0.057709|   -0.000145|
|          83|   -7.335507|   -6.821307|    0.057801|   -0.000146|
|          84|   -7.356003|   -6.845201|    0.057892|   -0.000147|
|          85|   -7.376319|   -6.869152|    0.057980|   -0.000148|
|          86|   -7.396777|   -6.893439|    0.058065|   -0.000148|
|          87|   -7.417628|   -6.918279|    0.058145|   -0.000148|
|          88|   -7.438889|   -6.943671|    0.058222|   -0.000149|
|          89|   -7.460333|   -6.969321|    0.058297|   -0.000151|
|          90|   -7.481636|   -6.994745|    0.058370|   -0.000152|
|          91|   -7.502511|   -7.019446|    0.058440|   -0.000152|
|          92|   -7.522765|   -7.043098|    0.058507|   -0.000154|
|          93|   -7.542303|   -7.065602|    0.058572|   -0.000155|
|          94|   -7.561163|   -7.087079|    0.058634|   -0.000156|
|          95|   -7.579529|   -7.107841|    0.058695|   -0.000157|
|          96|   -7.597612|   -7.128239|    0.058753|   -0.000158|
|          97|   -7.615513|   -7.148509|    0.058810|   -0.000160|
|          98|   -7.633233|   -7.168741|    0.058865|   -0.000161|
|          99|   -7.650748|   -7.188933|    0.058917|   -0.000162|
|         100|   -7.668041|   -7.209014|    0.058968|   -0.000163|
|         101|   -7.685076|   -7.228864|    0.059017|   -0.000164|
|         102|   -7.701821|   -7.248381|    0.059064|   -0.000165|
|         103|   -7.718320|   -7.267581|    0.059108|   -0.000166|
|         104|   -7.734706|   -7.286627|    0.059151|   -0.000167|
|         105|   -7.751145|   -7.305759|    0.059191|   -0.000168|
|         106|   -7.767772|   -7.325213|    0.059230|   -0.000169|
|         107|   -7.784641|   -7.345134|    0.059267|   -0.000170|
|         108|   -7.801695|   -7.365512|    0.059303|   -0.000170|
|         109|   -7.818772|   -7.386155|    0.059337|   -0.000171|
|         110|   -7.835648|   -7.406729|    0.059369|   -0.000172|
|         111|   -7.852092|   -7.426851|    0.059400|   -0.000172|
|         112|   -7.867928|   -7.446196|    0.059430|   -0.000173|
|         113|   -7.883082|   -7.464589|    0.059459|   -0.000173|
|         114|   -7.897602|   -7.482062|    0.059487|   -0.000174|
|         115|   -7.911629|   -7.498828|    0.059515|   -0.000174|
|         116|   -7.925341|   -7.515198|    0.059541|   -0.000175|
|         117|   -7.938888|   -7.531467|    0.059567|   -0.000175|
|         118|   -7.952355|   -7.547832|    0.059592|   -0.000176|
|         119|   -7.965748|   -7.564339|    0.059617|   -0.000176|
|         120|   -7.978997|   -7.580894|    0.059641|   -0.000177|
|         121|   -7.991996|   -7.597306|    0.059664|   -0.000178|
|         122|   -8.004644|   -7.613371|    0.059687|   -0.000178|
|         123|   -8.016883|   -7.628950|    0.059709|   -0.000179|
|         124|   -8.028716|   -7.644014|    0.059730|   -0.000179|
|         125|   -8.040203|   -7.658646|    0.059751|   -0.000180|
|         126|   -8.051435|   -7.673010|    0.059771|   -0.000180|
|         127|   -8.062513|   -7.687298|    0.059790|   -0.000181|
|         128|   -8.073514|   -7.701667|    0.059809|   -0.000181|
|         129|   -8.084476|   -7.716197|    0.059827|   -0.000181|
|         130|   -8.095389|   -7.730862|    0.059844|   -0.000182|
|         131|   -8.106203|   -7.745543|    0.059861|   -0.000182|
|         132|   -8.116848|   -7.760056|    0.059877|   -0.000182|
|         133|   -8.127259|   -7.774209|    0.059892|   -0.000183|
|         134|   -8.137397|   -7.787855|    0.059907|   -0.000183|
|         135|   -8.147256|   -7.800926|    0.059922|   -0.000183|
|         136|   -8.156868|   -7.813443|    0.059936|   -0.000184|
|         137|   -8.166283|   -7.825492|    0.059949|   -0.000184|
|         138|   -8.175559|   -7.837192|    0.059962|   -0.000184|
|         139|   -8.184745|   -7.848655|    0.059975|   -0.000184|
|         140|   -8.193872|   -7.859958|    0.059988|   -0.000185|
|         141|   -8.202945|   -7.871129|    0.060000|   -0.000185|
|         142|   -8.211955|   -7.882153|    0.060012|   -0.000185|
|         143|   -8.220877|   -7.892987|    0.060024|   -0.000185|
|         144|   -8.229688|   -7.903580|    0.060035|   -0.000185|
|         145|   -8.238371|   -7.913893|    0.060047|   -0.000186|
|         146|   -8.246921|   -7.923910|    0.060057|   -0.000186|
|         147|   -8.255344|   -7.933642|    0.060068|   -0.000186|
|         148|   -8.263657|   -7.943120|    0.060078|   -0.000186|
|         149|   -8.271879|   -7.952382|    0.060088|   -0.000186|
|         150|   -8.280028|   -7.961461|    0.060098|   -0.000186|
|         151|   -8.288119|   -7.970380|    0.060107|   -0.000186|
|         152|   -8.296156|   -7.979144|    0.060117|   -0.000187|
|         153|   -8.304138|   -7.987746|    0.060126|   -0.000187|
|         154|   -8.312059|   -7.996174|    0.060135|   -0.000187|
|         155|   -8.319910|   -8.004417|    0.060143|   -0.000187|
|         156|   -8.327685|   -8.012471|    0.060152|   -0.000187|
|         157|   -8.335379|   -8.020348|    0.060160|   -0.000187|
|         158|   -8.342994|   -8.028064|    0.060168|   -0.000187|
|         159|   -8.350530|   -8.035648|    0.060176|   -0.000187|
|         160|   -8.357994|   -8.043123|    0.060184|   -0.000187|
|         161|   -8.365388|   -8.050513|    0.060192|   -0.000187|
|         162|   -8.372716|   -8.057831|    0.060199|   -0.000187|
|         163|   -8.379976|   -8.065080|    0.060207|   -0.000187|
|         164|   -8.387167|   -8.072259|    0.060214|   -0.000188|
|         165|   -8.394287|   -8.079360|    0.060222|   -0.000188|
|         166|   -8.401332|   -8.086377|    0.060229|   -0.000188|
|         167|   -8.408299|   -8.093307|    0.060236|   -0.000188|
|         168|   -8.415190|   -8.100150|    0.060244|   -0.000188|
|         169|   -8.422006|   -8.106915|    0.060251|   -0.000188|
|         170|   -8.428749|   -8.113613|    0.060258|   -0.000188|
|         171|   -8.435426|   -8.120255|    0.060264|   -0.000188|
|         172|   -8.442039|   -8.126854|    0.060271|   -0.000188|
|         173|   -8.448592|   -8.133418|    0.060278|   -0.000188|
|         174|   -8.455087|   -8.139953|    0.060284|   -0.000188|
|         175|   -8.461525|   -8.146460|    0.060291|   -0.000188|
|         176|   -8.467906|   -8.152938|    0.060297|   -0.000188|
|         177|   -8.474227|   -8.159384|    0.060304|   -0.000188|
|         178|   -8.480486|   -8.165792|    0.060310|   -0.000188|
|         179|   -8.486683|   -8.172162|    0.060316|   -0.000188|
|         180|   -8.492814|   -8.178491|    0.060322|   -0.000188|
|         181|   -8.498880|   -8.184779|    0.060329|   -0.000188|
|         182|   -8.504881|   -8.191028|    0.060335|   -0.000188|
|         183|   -8.510816|   -8.197239|    0.060341|   -0.000188|
|         184|   -8.516688|   -8.203416|    0.060347|   -0.000188|
|         185|   -8.522496|   -8.209562|    0.060353|   -0.000188|
|         186|   -8.528244|   -8.215681|    0.060359|   -0.000187|
|         187|   -8.533933|   -8.221776|    0.060365|   -0.000187|
|         188|   -8.539566|   -8.227853|    0.060371|   -0.000187|
|         189|   -8.545147|   -8.233916|    0.060377|   -0.000187|
|         190|   -8.550679|   -8.239974|    0.060383|   -0.000187|
|         191|   -8.556168|   -8.246032|    0.060389|   -0.000187|
|         192|   -8.561617|   -8.252100|    0.060395|   -0.000187|
|         193|   -8.567031|   -8.258183|    0.060400|   -0.000187|
|         194|   -8.572414|   -8.264290|    0.060406|   -0.000187|
|         195|   -8.577771|   -8.270424|    0.060412|   -0.000187|
|         196|   -8.583105|   -8.276589|    0.060418|   -0.000187|
|         197|   -8.588419|   -8.282788|    0.060424|   -0.000187|
|         198|   -8.593714|   -8.289021|    0.060429|   -0.000187|
|         199|   -8.598993|   -8.295287|    0.060435|   -0.000187|
|         200|   -8.604257|   -8.301584|    0.060441|   -0.000187|
|         201|   -8.609506|   -8.307910|    0.060446|   -0.000187|
|         202|   -8.614741|   -8.314261|    0.060452|   -0.000187|
|         203|   -8.619964|   -8.320635|    0.060458|   -0.000187|
|         204|   -8.625176|   -8.327030|    0.060463|   -0.000187|
|         205|   -8.630377|   -8.333444|    0.060469|   -0.000187|
|         206|   -8.635569|   -8.339877|    0.060474|   -0.000186|
|         207|   -8.640755|   -8.346327|    0.060480|   -0.000186|
|         208|   -8.645937|   -8.352796|    0.060486|   -0.000186|
|         209|   -8.651117|   -8.359284|    0.060491|   -0.000186|
|         210|   -8.656298|   -8.365793|    0.060497|   -0.000186|
|         211|   -8.661482|   -8.372324|    0.060502|   -0.000186|
|         212|   -8.666673|   -8.378881|    0.060508|   -0.000186|
|         213|   -8.671875|   -8.385465|    0.060513|   -0.000186|
|         214|   -8.677089|   -8.392082|    0.060519|   -0.000186|
|         215|   -8.682320|   -8.398732|    0.060524|   -0.000186|
|         216|   -8.687571|   -8.405419|    0.060529|   -0.000186|
|         217|   -8.692843|   -8.412147|    0.060535|   -0.000186|
|         218|   -8.698141|   -8.418915|    0.060540|   -0.000186|
|         219|   -8.703466|   -8.425727|    0.060546|   -0.000186|
|         220|   -8.708820|   -8.432583|    0.060551|   -0.000186|
|         221|   -8.714205|   -8.439482|    0.060556|   -0.000186|
|         222|   -8.719622|   -8.446424|    0.060561|   -0.000186|
|         223|   -8.725074|   -8.453409|    0.060567|   -0.000185|
|         224|   -8.730560|   -8.460435|    0.060572|   -0.000185|
|         225|   -8.736081|   -8.467500|    0.060577|   -0.000185|
|         226|   -8.741639|   -8.474602|    0.060582|   -0.000185|
|         227|   -8.747235|   -8.481741|    0.060588|   -0.000185|
|         228|   -8.752868|   -8.488915|    0.060593|   -0.000185|
|         229|   -8.758540|   -8.496122|    0.060598|   -0.000185|
|         230|   -8.764251|   -8.503362|    0.060603|   -0.000185|
|         231|   -8.770003|   -8.510635|    0.060608|   -0.000185|
|         232|   -8.775797|   -8.517940|    0.060613|   -0.000185|
|         233|   -8.781632|   -8.525278|    0.060618|   -0.000185|
|         234|   -8.787511|   -8.532651|    0.060623|   -0.000185|
|         235|   -8.793435|   -8.540060|    0.060628|   -0.000185|
|         236|   -8.799404|   -8.547504|    0.060633|   -0.000185|
|         237|   -8.805418|   -8.554985|    0.060638|   -0.000185|
|         238|   -8.811480|   -8.562505|    0.060643|   -0.000185|
|         239|   -8.817590|   -8.570066|    0.060648|   -0.000185|
|         240|   -8.823749|   -8.577666|    0.060653|   -0.000185|
|         241|   -8.829957|   -8.585308|    0.060658|   -0.000185|
|         242|   -8.836215|   -8.592991|    0.060662|   -0.000184|
|         243|   -8.842523|   -8.600715|    0.060667|   -0.000184|
|         244|   -8.848881|   -8.608477|    0.060672|   -0.000184|
|         245|   -8.855290|   -8.616279|    0.060677|   -0.000184|
|         246|   -8.861749|   -8.624119|    0.060681|   -0.000184|
|         247|   -8.868259|   -8.631996|    0.060686|   -0.000184|
|         248|   -8.874820|   -8.639908|    0.060691|   -0.000184|
|         249|   -8.881432|   -8.647854|    0.060695|   -0.000184|
|         250|   -8.888094|   -8.655834|    0.060700|   -0.000184|
+-----------------------------------------------------------------------+
|        File Writing Summary       |              Filename             |
+-----------------------------------------------------------------------+
|SU2 restart                        |restart_flow.dat                   |
|Paraview                           |flow.vtu                           |
|Paraview surface                   |surface_flow.vtu                   |
|CSV file                           |surface_flow.csv                   |
+-----------------------------------------------------------------------+
+----------------------------------------------------------------+
|  Inner_Iter|    rms[Rho]|   rms[RhoE]|          CL|          CD|
+----------------------------------------------------------------+
|         251|   -8.894808|   -8.663846|    0.060704|   -0.000184|
|         252|   -8.901572|   -8.671889|    0.060709|   -0.000184|
|         253|   -8.908387|   -8.679964|    0.060713|   -0.000184|
|         254|   -8.915254|   -8.688069|    0.060718|   -0.000184|
|         255|   -8.922173|   -8.696206|    0.060722|   -0.000184|
|         256|   -8.929143|   -8.704373|    0.060726|   -0.000184|
|         257|   -8.936165|   -8.712572|    0.060731|   -0.000184|
|         258|   -8.943239|   -8.720802|    0.060735|   -0.000184|
|         259|   -8.950365|   -8.729065|    0.060739|   -0.000184|
|         260|   -8.957545|   -8.737360|    0.060743|   -0.000184|
|         261|   -8.964776|   -8.745687|    0.060747|   -0.000184|
|         262|   -8.972061|   -8.754047|    0.060752|   -0.000184|
|         263|   -8.979399|   -8.762439|    0.060756|   -0.000184|
|         264|   -8.986789|   -8.770862|    0.060760|   -0.000184|
|         265|   -8.994232|   -8.779318|    0.060764|   -0.000184|
|         266|   -9.001728|   -8.787803|    0.060768|   -0.000184|
|         267|   -9.009277|   -8.796319|    0.060772|   -0.000183|
|         268|   -9.016878|   -8.804863|    0.060776|   -0.000183|
|         269|   -9.024532|   -8.813435|    0.060780|   -0.000183|
|         270|   -9.032237|   -8.822034|    0.060783|   -0.000183|
|         271|   -9.039995|   -8.830659|    0.060787|   -0.000183|
|         272|   -9.047804|   -8.839309|    0.060791|   -0.000183|
|         273|   -9.055665|   -8.847984|    0.060795|   -0.000183|
|         274|   -9.063578|   -8.856682|    0.060798|   -0.000183|
|         275|   -9.071542|   -8.865403|    0.060802|   -0.000183|
|         276|   -9.079558|   -8.874147|    0.060806|   -0.000183|
|         277|   -9.087625|   -8.882914|    0.060809|   -0.000183|
|         278|   -9.095743|   -8.891703|    0.060813|   -0.000183|
|         279|   -9.103912|   -8.900514|    0.060816|   -0.000183|
|         280|   -9.112133|   -8.909348|    0.060820|   -0.000183|
|         281|   -9.120405|   -8.918204|    0.060823|   -0.000183|
|         282|   -9.128727|   -8.927083|    0.060827|   -0.000183|
|         283|   -9.137101|   -8.935983|    0.060830|   -0.000183|
|         284|   -9.145525|   -8.944905|    0.060833|   -0.000183|
|         285|   -9.154000|   -8.953848|    0.060837|   -0.000183|
|         286|   -9.162526|   -8.962812|    0.060840|   -0.000183|
|         287|   -9.171101|   -8.971796|    0.060843|   -0.000183|
|         288|   -9.179727|   -8.980800|    0.060846|   -0.000183|
|         289|   -9.188402|   -8.989823|    0.060849|   -0.000183|
|         290|   -9.197127|   -8.998863|    0.060853|   -0.000183|
|         291|   -9.205901|   -9.007921|    0.060856|   -0.000183|
|         292|   -9.214724|   -9.016995|    0.060859|   -0.000183|
|         293|   -9.223596|   -9.026085|    0.060862|   -0.000183|
|         294|   -9.232516|   -9.035189|    0.060865|   -0.000183|
|         295|   -9.241485|   -9.044308|    0.060867|   -0.000183|
|         296|   -9.250501|   -9.053440|    0.060870|   -0.000183|
|         297|   -9.259565|   -9.062585|    0.060873|   -0.000183|
|         298|   -9.268677|   -9.071743|    0.060876|   -0.000183|
|         299|   -9.277836|   -9.080912|    0.060879|   -0.000183|
|         300|   -9.287042|   -9.090094|    0.060882|   -0.000183|
|         301|   -9.296295|   -9.099287|    0.060884|   -0.000183|
|         302|   -9.305594|   -9.108490|    0.060887|   -0.000183|
|         303|   -9.314940|   -9.117705|    0.060889|   -0.000183|
|         304|   -9.324332|   -9.126929|    0.060892|   -0.000183|
|         305|   -9.333769|   -9.136164|    0.060895|   -0.000183|
|         306|   -9.343253|   -9.145409|    0.060897|   -0.000183|
|         307|   -9.352781|   -9.154662|    0.060900|   -0.000183|
|         308|   -9.362355|   -9.163924|    0.060902|   -0.000183|
|         309|   -9.371973|   -9.173194|    0.060905|   -0.000183|
|         310|   -9.381636|   -9.182472|    0.060907|   -0.000183|
|         311|   -9.391343|   -9.191757|    0.060909|   -0.000183|
|         312|   -9.401093|   -9.201048|    0.060912|   -0.000183|
|         313|   -9.410887|   -9.210345|    0.060914|   -0.000183|
|         314|   -9.420724|   -9.219648|    0.060916|   -0.000183|
|         315|   -9.430604|   -9.228955|    0.060918|   -0.000183|
|         316|   -9.440526|   -9.238266|    0.060920|   -0.000183|
|         317|   -9.450490|   -9.247582|    0.060923|   -0.000183|
|         318|   -9.460497|   -9.256900|    0.060925|   -0.000183|
|         319|   -9.470544|   -9.266222|    0.060927|   -0.000183|
|         320|   -9.480633|   -9.275546|    0.060929|   -0.000183|
|         321|   -9.490762|   -9.284872|    0.060931|   -0.000183|
|         322|   -9.500932|   -9.294200|    0.060933|   -0.000183|
|         323|   -9.511142|   -9.303529|    0.060935|   -0.000183|
|         324|   -9.521391|   -9.312860|    0.060937|   -0.000183|
|         325|   -9.531680|   -9.322191|    0.060939|   -0.000183|
|         326|   -9.542008|   -9.331523|    0.060941|   -0.000183|
|         327|   -9.552375|   -9.340855|    0.060942|   -0.000183|
|         328|   -9.562780|   -9.350187|    0.060944|   -0.000183|
|         329|   -9.573222|   -9.359519|    0.060946|   -0.000183|
|         330|   -9.583703|   -9.368850|    0.060948|   -0.000183|
|         331|   -9.594220|   -9.378180|    0.060949|   -0.000183|
|         332|   -9.604774|   -9.387509|    0.060951|   -0.000183|
|         333|   -9.615365|   -9.396836|    0.060953|   -0.000183|
|         334|   -9.625991|   -9.406162|    0.060954|   -0.000183|
|         335|   -9.636653|   -9.415485|    0.060956|   -0.000183|
|         336|   -9.647350|   -9.424806|    0.060958|   -0.000183|
|         337|   -9.658081|   -9.434124|    0.060959|   -0.000183|
|         338|   -9.668847|   -9.443440|    0.060961|   -0.000183|
|         339|   -9.679647|   -9.452753|    0.060962|   -0.000183|
|         340|   -9.690480|   -9.462063|    0.060964|   -0.000183|
|         341|   -9.701346|   -9.471370|    0.060965|   -0.000183|
|         342|   -9.712244|   -9.480673|    0.060967|   -0.000183|
|         343|   -9.723175|   -9.489973|    0.060968|   -0.000183|
|         344|   -9.734137|   -9.499270|    0.060969|   -0.000182|
|         345|   -9.745131|   -9.508562|    0.060971|   -0.000182|
|         346|   -9.756155|   -9.517852|    0.060972|   -0.000182|
|         347|   -9.767209|   -9.527137|    0.060973|   -0.000182|
|         348|   -9.778294|   -9.536419|    0.060975|   -0.000182|
|         349|   -9.789407|   -9.545697|    0.060976|   -0.000182|
|         350|   -9.800549|   -9.554971|    0.060977|   -0.000182|
|         351|   -9.811720|   -9.564241|    0.060979|   -0.000182|
|         352|   -9.822919|   -9.573507|    0.060980|   -0.000182|
|         353|   -9.834144|   -9.582769|    0.060981|   -0.000182|
|         354|   -9.845397|   -9.592027|    0.060982|   -0.000182|
|         355|   -9.856676|   -9.601281|    0.060983|   -0.000182|
|         356|   -9.867981|   -9.610530|    0.060984|   -0.000182|
|         357|   -9.879311|   -9.619776|    0.060985|   -0.000182|
|         358|   -9.890666|   -9.629018|    0.060986|   -0.000182|
|         359|   -9.902045|   -9.638256|    0.060988|   -0.000182|
|         360|   -9.913448|   -9.647490|    0.060989|   -0.000182|
|         361|   -9.924873|   -9.656721|    0.060990|   -0.000182|
|         362|   -9.936322|   -9.665948|    0.060991|   -0.000182|
|         363|   -9.947793|   -9.675172|    0.060992|   -0.000182|
|         364|   -9.959285|   -9.684392|    0.060993|   -0.000182|
|         365|   -9.970798|   -9.693609|    0.060993|   -0.000182|
|         366|   -9.982332|   -9.702823|    0.060994|   -0.000182|
|         367|   -9.993886|   -9.712034|    0.060995|   -0.000182|
|         368|  -10.005459|   -9.721242|    0.060996|   -0.000182|
|         369|  -10.017051|   -9.730448|    0.060997|   -0.000182|
|         370|  -10.028661|   -9.739651|    0.060998|   -0.000182|
|         371|  -10.040289|   -9.748852|    0.060999|   -0.000182|
|         372|  -10.051934|   -9.758051|    0.061000|   -0.000182|
|         373|  -10.063595|   -9.767248|    0.061000|   -0.000182|
|         374|  -10.075273|   -9.776443|    0.061001|   -0.000182|
|         375|  -10.086965|   -9.785636|    0.061002|   -0.000182|
|         376|  -10.098673|   -9.794828|    0.061003|   -0.000182|
|         377|  -10.110394|   -9.804018|    0.061004|   -0.000182|
|         378|  -10.122129|   -9.813207|    0.061004|   -0.000182|
|         379|  -10.133877|   -9.822395|    0.061005|   -0.000182|
|         380|  -10.145637|   -9.831582|    0.061006|   -0.000182|
|         381|  -10.157409|   -9.840768|    0.061006|   -0.000182|
|         382|  -10.169192|   -9.849954|    0.061007|   -0.000182|
|         383|  -10.180985|   -9.859139|    0.061008|   -0.000182|
|         384|  -10.192788|   -9.868324|    0.061008|   -0.000182|
|         385|  -10.204601|   -9.877509|    0.061009|   -0.000182|
|         386|  -10.216422|   -9.886694|    0.061010|   -0.000182|
|         387|  -10.228251|   -9.895879|    0.061010|   -0.000182|
|         388|  -10.240088|   -9.905065|    0.061011|   -0.000182|
|         389|  -10.251931|   -9.914251|    0.061011|   -0.000182|
|         390|  -10.263781|   -9.923438|    0.061012|   -0.000182|
|         391|  -10.275636|   -9.932626|    0.061013|   -0.000182|
|         392|  -10.287496|   -9.941815|    0.061013|   -0.000182|
|         393|  -10.299361|   -9.951006|    0.061014|   -0.000182|
|         394|  -10.311229|   -9.960198|    0.061014|   -0.000182|
|         395|  -10.323101|   -9.969392|    0.061015|   -0.000182|
|         396|  -10.334975|   -9.978587|    0.061015|   -0.000182|
|         397|  -10.346851|   -9.987785|    0.061016|   -0.000182|
|         398|  -10.358728|   -9.996984|    0.061016|   -0.000182|
|         399|  -10.370606|  -10.006186|    0.061017|   -0.000182|
|         400|  -10.382484|  -10.015389|    0.061017|   -0.000182|
|         401|  -10.394361|  -10.024596|    0.061018|   -0.000182|
|         402|  -10.406237|  -10.033805|    0.061018|   -0.000182|
|         403|  -10.418112|  -10.043016|    0.061018|   -0.000182|
|         404|  -10.429984|  -10.052231|    0.061019|   -0.000182|
|         405|  -10.441853|  -10.061448|    0.061019|   -0.000182|
|         406|  -10.453719|  -10.070668|    0.061020|   -0.000182|
|         407|  -10.465580|  -10.079891|    0.061020|   -0.000182|
|         408|  -10.477437|  -10.089117|    0.061021|   -0.000182|
|         409|  -10.489289|  -10.098347|    0.061021|   -0.000182|
|         410|  -10.501134|  -10.107579|    0.061021|   -0.000182|
|         411|  -10.512974|  -10.116815|    0.061022|   -0.000182|
|         412|  -10.524806|  -10.126055|    0.061022|   -0.000182|
|         413|  -10.536630|  -10.135298|    0.061022|   -0.000182|
|         414|  -10.548446|  -10.144544|    0.061023|   -0.000182|
|         415|  -10.560254|  -10.153794|    0.061023|   -0.000182|
|         416|  -10.572052|  -10.163048|    0.061023|   -0.000182|
|         417|  -10.583840|  -10.172305|    0.061024|   -0.000182|
|         418|  -10.595618|  -10.181566|    0.061024|   -0.000182|
|         419|  -10.607385|  -10.190830|    0.061024|   -0.000182|
|         420|  -10.619141|  -10.200099|    0.061025|   -0.000182|
|         421|  -10.630884|  -10.209371|    0.061025|   -0.000182|
|         422|  -10.642616|  -10.218646|    0.061025|   -0.000182|
|         423|  -10.654334|  -10.227926|    0.061026|   -0.000182|
|         424|  -10.666038|  -10.237209|    0.061026|   -0.000182|
|         425|  -10.677729|  -10.246496|    0.061026|   -0.000182|
|         426|  -10.689405|  -10.255786|    0.061026|   -0.000182|
|         427|  -10.701066|  -10.265080|    0.061027|   -0.000182|
|         428|  -10.712711|  -10.274378|    0.061027|   -0.000182|
|         429|  -10.724341|  -10.283679|    0.061027|   -0.000182|
|         430|  -10.735954|  -10.292983|    0.061027|   -0.000182|
|         431|  -10.747550|  -10.302291|    0.061028|   -0.000182|
|         432|  -10.759129|  -10.311603|    0.061028|   -0.000182|
|         433|  -10.770689|  -10.320917|    0.061028|   -0.000182|
|         434|  -10.782232|  -10.330235|    0.061028|   -0.000182|
|         435|  -10.793756|  -10.339556|    0.061029|   -0.000182|
|         436|  -10.805261|  -10.348880|    0.061029|   -0.000182|
|         437|  -10.816746|  -10.358207|    0.061029|   -0.000182|
|         438|  -10.828211|  -10.367536|    0.061029|   -0.000182|
|         439|  -10.839656|  -10.376868|    0.061029|   -0.000182|
|         440|  -10.851081|  -10.386203|    0.061030|   -0.000182|
|         441|  -10.862484|  -10.395541|    0.061030|   -0.000182|
|         442|  -10.873865|  -10.404880|    0.061030|   -0.000182|
|         443|  -10.885225|  -10.414222|    0.061030|   -0.000182|
|         444|  -10.896563|  -10.423566|    0.061030|   -0.000182|
|         445|  -10.907878|  -10.432912|    0.061031|   -0.000182|
|         446|  -10.919170|  -10.442259|    0.061031|   -0.000182|
|         447|  -10.930438|  -10.451608|    0.061031|   -0.000182|
|         448|  -10.941683|  -10.460959|    0.061031|   -0.000182|
|         449|  -10.952905|  -10.470311|    0.061031|   -0.000182|
|         450|  -10.964101|  -10.479663|    0.061031|   -0.000182|
|         451|  -10.975274|  -10.489017|    0.061032|   -0.000182|
|         452|  -10.986422|  -10.498372|    0.061032|   -0.000182|
|         453|  -10.997544|  -10.507726|    0.061032|   -0.000182|
|         454|  -11.008641|  -10.517081|    0.061032|   -0.000182|
|         455|  -11.019712|  -10.526437|    0.061032|   -0.000182|
|         456|  -11.030758|  -10.535792|    0.061032|   -0.000182|
|         457|  -11.041777|  -10.545147|    0.061032|   -0.000182|
|         458|  -11.052770|  -10.554501|    0.061033|   -0.000182|
|         459|  -11.063736|  -10.563854|    0.061033|   -0.000182|
|         460|  -11.074676|  -10.573207|    0.061033|   -0.000182|
|         461|  -11.085588|  -10.582559|    0.061033|   -0.000182|
|         462|  -11.096472|  -10.591908|    0.061033|   -0.000182|
|         463|  -11.107330|  -10.601256|    0.061033|   -0.000182|
|         464|  -11.118159|  -10.610602|    0.061033|   -0.000182|
|         465|  -11.128960|  -10.619946|    0.061033|   -0.000182|
|         466|  -11.139734|  -10.629288|    0.061034|   -0.000182|
|         467|  -11.150479|  -10.638627|    0.061034|   -0.000183|
|         468|  -11.161195|  -10.647963|    0.061034|   -0.000183|
|         469|  -11.171883|  -10.657295|    0.061034|   -0.000183|
|         470|  -11.182542|  -10.666624|    0.061034|   -0.000183|
|         471|  -11.193172|  -10.675949|    0.061034|   -0.000183|
|         472|  -11.203773|  -10.685270|    0.061034|   -0.000183|
|         473|  -11.214345|  -10.694587|    0.061034|   -0.000183|
|         474|  -11.224887|  -10.703899|    0.061034|   -0.000183|
|         475|  -11.235400|  -10.713207|    0.061034|   -0.000183|
|         476|  -11.245883|  -10.722509|    0.061035|   -0.000183|
|         477|  -11.256336|  -10.731805|    0.061035|   -0.000183|
|         478|  -11.266760|  -10.741096|    0.061035|   -0.000183|
|         479|  -11.277154|  -10.750381|    0.061035|   -0.000183|
|         480|  -11.287518|  -10.759660|    0.061035|   -0.000183|
|         481|  -11.297851|  -10.768932|    0.061035|   -0.000183|
|         482|  -11.308154|  -10.778197|    0.061035|   -0.000183|
|         483|  -11.318428|  -10.787454|    0.061035|   -0.000183|
|         484|  -11.328671|  -10.796705|    0.061035|   -0.000183|
|         485|  -11.338883|  -10.805947|    0.061035|   -0.000183|
|         486|  -11.349066|  -10.815182|    0.061035|   -0.000183|
|         487|  -11.359218|  -10.824410|    0.061035|   -0.000183|
|         488|  -11.369340|  -10.833627|    0.061036|   -0.000183|
|         489|  -11.379430|  -10.842835|    0.061036|   -0.000183|
|         490|  -11.389491|  -10.852036|    0.061036|   -0.000183|
|         491|  -11.399520|  -10.861225|    0.061036|   -0.000183|
|         492|  -11.409521|  -10.870406|    0.061036|   -0.000183|
|         493|  -11.419489|  -10.879576|    0.061036|   -0.000183|
|         494|  -11.429428|  -10.888738|    0.061036|   -0.000183|
|         495|  -11.439336|  -10.897887|    0.061036|   -0.000183|
|         496|  -11.449213|  -10.907025|    0.061036|   -0.000183|
|         497|  -11.459061|  -10.916154|    0.061036|   -0.000183|
|         498|  -11.468876|  -10.925269|    0.061036|   -0.000183|
|         499|  -11.478662|  -10.934375|    0.061036|   -0.000183|
|         500|  -11.488418|  -10.943467|    0.061036|   -0.000183|
+-----------------------------------------------------------------------+
|        File Writing Summary       |              Filename             |
+-----------------------------------------------------------------------+
|SU2 restart                        |restart_flow.dat                   |
|Paraview                           |flow.vtu                           |
|Paraview surface                   |surface_flow.vtu                   |
|CSV file                           |surface_flow.csv                   |
+-----------------------------------------------------------------------+
+----------------------------------------------------------------+
|  Inner_Iter|    rms[Rho]|   rms[RhoE]|          CL|          CD|
+----------------------------------------------------------------+
|         501|  -11.498143|  -10.952549|    0.061036|   -0.000183|
|         502|  -11.507838|  -10.961617|    0.061036|   -0.000183|
|         503|  -11.517504|  -10.970674|    0.061036|   -0.000183|
|         504|  -11.527137|  -10.979716|    0.061036|   -0.000183|
|         505|  -11.536743|  -10.988747|    0.061037|   -0.000183|
|         506|  -11.546318|  -10.997764|    0.061037|   -0.000183|
|         507|  -11.555863|  -11.006767|    0.061037|   -0.000183|
|         508|  -11.565379|  -11.015757|    0.061037|   -0.000183|
|         509|  -11.574864|  -11.024733|    0.061037|   -0.000183|
|         510|  -11.584319|  -11.033694|    0.061037|   -0.000183|
|         511|  -11.593747|  -11.042643|    0.061037|   -0.000183|
|         512|  -11.603145|  -11.051576|    0.061037|   -0.000183|
|         513|  -11.612512|  -11.060494|    0.061037|   -0.000183|
|         514|  -11.621851|  -11.069397|    0.061037|   -0.000183|
|         515|  -11.631161|  -11.078286|    0.061037|   -0.000183|
|         516|  -11.640442|  -11.087160|    0.061037|   -0.000183|
|         517|  -11.649694|  -11.096018|    0.061037|   -0.000183|
|         518|  -11.658918|  -11.104860|    0.061037|   -0.000183|
|         519|  -11.668114|  -11.113688|    0.061037|   -0.000183|
|         520|  -11.677282|  -11.122500|    0.061037|   -0.000183|
|         521|  -11.686422|  -11.131296|    0.061037|   -0.000183|
|         522|  -11.695534|  -11.140076|    0.061037|   -0.000183|
|         523|  -11.704618|  -11.148840|    0.061037|   -0.000183|
|         524|  -11.713676|  -11.157589|    0.061037|   -0.000183|
|         525|  -11.722705|  -11.166321|    0.061037|   -0.000183|
|         526|  -11.731707|  -11.175035|    0.061037|   -0.000183|
|         527|  -11.740684|  -11.183735|    0.061037|   -0.000183|
|         528|  -11.749631|  -11.192417|    0.061037|   -0.000183|
|         529|  -11.758556|  -11.201085|    0.061037|   -0.000183|
|         530|  -11.767452|  -11.209734|    0.061038|   -0.000183|
|         531|  -11.776324|  -11.218369|    0.061038|   -0.000183|
|         532|  -11.785167|  -11.226984|    0.061038|   -0.000183|
|         533|  -11.793989|  -11.235588|    0.061038|   -0.000183|
|         534|  -11.802781|  -11.244170|    0.061038|   -0.000183|
|         535|  -11.811552|  -11.252738|    0.061038|   -0.000183|
|         536|  -11.820296|  -11.261289|    0.061038|   -0.000183|
|         537|  -11.829019|  -11.269826|    0.061038|   -0.000183|
|         538|  -11.837713|  -11.278342|    0.061038|   -0.000183|
|         539|  -11.846386|  -11.286845|    0.061038|   -0.000183|
|         540|  -11.855033|  -11.295329|    0.061038|   -0.000183|
|         541|  -11.863658|  -11.303798|    0.061038|   -0.000183|
|         542|  -11.872258|  -11.312250|    0.061038|   -0.000183|
|         543|  -11.880839|  -11.320687|    0.061038|   -0.000183|
|         544|  -11.889396|  -11.329108|    0.061038|   -0.000183|
|         545|  -11.897931|  -11.337513|    0.061038|   -0.000183|
|         546|  -11.906444|  -11.345902|    0.061038|   -0.000183|
|         547|  -11.914933|  -11.354274|    0.061038|   -0.000183|
|         548|  -11.923404|  -11.362632|    0.061038|   -0.000183|
|         549|  -11.931852|  -11.370973|    0.061038|   -0.000183|
|         550|  -11.940280|  -11.379300|    0.061038|   -0.000183|
|         551|  -11.948685|  -11.387607|    0.061038|   -0.000183|
|         552|  -11.957072|  -11.395905|    0.061038|   -0.000183|
|         553|  -11.965442|  -11.404187|    0.061038|   -0.000183|
|         554|  -11.973786|  -11.412450|    0.061038|   -0.000183|
|         555|  -11.982115|  -11.420700|    0.061038|   -0.000183|
|         556|  -11.990424|  -11.428936|    0.061038|   -0.000183|
|         557|  -11.998712|  -11.437156|    0.061038|   -0.000183|
|         558|  -12.006987|  -11.445366|    0.061038|   -0.000183|
|         559|  -12.015240|  -11.453557|    0.061038|   -0.000183|
|         560|  -12.023477|  -11.461735|    0.061038|   -0.000183|
|         561|  -12.031694|  -11.469900|    0.061038|   -0.000183|
|         562|  -12.039897|  -11.478053|    0.061038|   -0.000183|
|         563|  -12.048083|  -11.486189|    0.061038|   -0.000183|
|         564|  -12.056247|  -11.494312|    0.061038|   -0.000183|
|         565|  -12.064401|  -11.502422|    0.061038|   -0.000183|
|         566|  -12.072539|  -11.510524|    0.061038|   -0.000183|
|         567|  -12.080660|  -11.518610|    0.061038|   -0.000183|
|         568|  -12.088762|  -11.526680|    0.061038|   -0.000183|
|         569|  -12.096853|  -11.534740|    0.061038|   -0.000183|
|         570|  -12.104932|  -11.542792|    0.061038|   -0.000183|
|         571|  -12.112992|  -11.550829|    0.061038|   -0.000183|
|         572|  -12.121041|  -11.558855|    0.061038|   -0.000183|
|         573|  -12.129070|  -11.566864|    0.061038|   -0.000183|
|         574|  -12.137093|  -11.574868|    0.061038|   -0.000183|
|         575|  -12.145102|  -11.582862|    0.061038|   -0.000183|
|         576|  -12.153096|  -11.590842|    0.061038|   -0.000183|
|         577|  -12.161078|  -11.598812|    0.061038|   -0.000183|
|         578|  -12.169046|  -11.606771|    0.061038|   -0.000183|
|         579|  -12.177009|  -11.614724|    0.061038|   -0.000183|
|         580|  -12.184958|  -11.622666|    0.061038|   -0.000183|
|         581|  -12.192890|  -11.630594|    0.061039|   -0.000183|
|         582|  -12.200814|  -11.638516|    0.061039|   -0.000183|
|         583|  -12.208725|  -11.646423|    0.061039|   -0.000183|
|         584|  -12.216627|  -11.654326|    0.061039|   -0.000183|
|         585|  -12.224523|  -11.662224|    0.061039|   -0.000183|
|         586|  -12.232408|  -11.670112|    0.061039|   -0.000183|
|         587|  -12.240274|  -11.677981|    0.061039|   -0.000183|
|         588|  -12.248140|  -11.685853|    0.061039|   -0.000183|
|         589|  -12.255999|  -11.693717|    0.061039|   -0.000183|
|         590|  -12.263842|  -11.701567|    0.061039|   -0.000183|
|         591|  -12.271681|  -11.709414|    0.061039|   -0.000183|
|         592|  -12.279507|  -11.717251|    0.061039|   -0.000183|
|         593|  -12.287335|  -11.725086|    0.061039|   -0.000183|
|         594|  -12.295145|  -11.732908|    0.061039|   -0.000183|
|         595|  -12.302954|  -11.740729|    0.061039|   -0.000183|
|         596|  -12.310752|  -11.748541|    0.061039|   -0.000183|
|         597|  -12.318540|  -11.756343|    0.061039|   -0.000183|
|         598|  -12.326328|  -11.764146|    0.061039|   -0.000183|
|         599|  -12.334100|  -11.771931|    0.061039|   -0.000183|
|         600|  -12.341878|  -11.779729|    0.061039|   -0.000183|
|         601|  -12.349647|  -11.787514|    0.061039|   -0.000183|
|         602|  -12.357403|  -11.795284|    0.061039|   -0.000183|
|         603|  -12.365159|  -11.803062|    0.061039|   -0.000183|
|         604|  -12.372913|  -11.810833|    0.061039|   -0.000183|
|         605|  -12.380655|  -11.818590|    0.061039|   -0.000183|
|         606|  -12.388388|  -11.826347|    0.061039|   -0.000183|
|         607|  -12.396131|  -11.834107|    0.061039|   -0.000183|
|         608|  -12.403859|  -11.841859|    0.061039|   -0.000183|
|         609|  -12.411588|  -11.849606|    0.061039|   -0.000183|
|         610|  -12.419316|  -11.857355|    0.061039|   -0.000183|
|         611|  -12.427030|  -11.865093|    0.061039|   -0.000183|
|         612|  -12.434737|  -11.872821|    0.061039|   -0.000183|
|         613|  -12.442450|  -11.880557|    0.061039|   -0.000183|
|         614|  -12.450164|  -11.888291|    0.061039|   -0.000183|
|         615|  -12.457867|  -11.896017|    0.061039|   -0.000183|
|         616|  -12.465565|  -11.903740|    0.061039|   -0.000183|
|         617|  -12.473270|  -11.911468|    0.061039|   -0.000183|
|         618|  -12.480969|  -11.919190|    0.061039|   -0.000183|
|         619|  -12.488666|  -11.926913|    0.061039|   -0.000183|
|         620|  -12.496353|  -11.934624|    0.061039|   -0.000183|
|         621|  -12.504054|  -11.942350|    0.061039|   -0.000183|
|         622|  -12.511738|  -11.950060|    0.061039|   -0.000183|
|         623|  -12.519422|  -11.957770|    0.061039|   -0.000183|
|         624|  -12.527105|  -11.965479|    0.061039|   -0.000183|
|         625|  -12.534798|  -11.973197|    0.061039|   -0.000183|
|         626|  -12.542480|  -11.980904|    0.061039|   -0.000183|
|         627|  -12.550160|  -11.988611|    0.061039|   -0.000183|
|         628|  -12.557843|  -11.996319|    0.061039|   -0.000183|
|         629|  -12.565522|  -12.004025|    0.061039|   -0.000183|
|         630|  -12.573202|  -12.011730|    0.061039|   -0.000183|
|         631|  -12.580890|  -12.019443|    0.061039|   -0.000183|
|         632|  -12.588552|  -12.027132|    0.061039|   -0.000183|
|         633|  -12.596251|  -12.034858|    0.061039|   -0.000183|
|         634|  -12.603925|  -12.042557|    0.061039|   -0.000183|
|         635|  -12.611609|  -12.050268|    0.061039|   -0.000183|
|         636|  -12.619289|  -12.057976|    0.061039|   -0.000183|
|         637|  -12.626966|  -12.065678|    0.061039|   -0.000183|
|         638|  -12.634653|  -12.073389|    0.061039|   -0.000183|
|         639|  -12.642326|  -12.081091|    0.061039|   -0.000183|
|         640|  -12.650014|  -12.088801|    0.061039|   -0.000183|
|         641|  -12.657692|  -12.096509|    0.061039|   -0.000183|
|         642|  -12.665377|  -12.104224|    0.061039|   -0.000183|
|         643|  -12.673082|  -12.111947|    0.061039|   -0.000183|
|         644|  -12.680758|  -12.119651|    0.061039|   -0.000183|
|         645|  -12.688432|  -12.127353|    0.061039|   -0.000183|
|         646|  -12.696125|  -12.135072|    0.061039|   -0.000183|
|         647|  -12.703842|  -12.142810|    0.061039|   -0.000183|
|         648|  -12.711516|  -12.150518|    0.061039|   -0.000183|
|         649|  -12.719215|  -12.158237|    0.061039|   -0.000183|
|         650|  -12.726910|  -12.165957|    0.061039|   -0.000183|
|         651|  -12.734615|  -12.173685|    0.061039|   -0.000183|
|         652|  -12.742315|  -12.181415|    0.061039|   -0.000183|
|         653|  -12.750028|  -12.189152|    0.061039|   -0.000183|
|         654|  -12.757721|  -12.196867|    0.061039|   -0.000183|
|         655|  -12.765428|  -12.204596|    0.061039|   -0.000183|
|         656|  -12.773143|  -12.212336|    0.061039|   -0.000183|
|         657|  -12.780850|  -12.220068|    0.061039|   -0.000183|
|         658|  -12.788557|  -12.227803|    0.061039|   -0.000183|
|         659|  -12.796297|  -12.235559|    0.061039|   -0.000183|
|         660|  -12.804005|  -12.243299|    0.061039|   -0.000183|
|         661|  -12.811712|  -12.251029|    0.061039|   -0.000183|
|         662|  -12.819446|  -12.258781|    0.061039|   -0.000183|
|         663|  -12.827177|  -12.266543|    0.061039|   -0.000183|
|         664|  -12.834915|  -12.274299|    0.061039|   -0.000183|
|         665|  -12.842642|  -12.282053|    0.061039|   -0.000183|
|         666|  -12.850377|  -12.289804|    0.061039|   -0.000183|
|         667|  -12.858143|  -12.297590|    0.061039|   -0.000183|
|         668|  -12.865870|  -12.305345|    0.061039|   -0.000183|
|         669|  -12.873607|  -12.313112|    0.061039|   -0.000183|
|         670|  -12.881345|  -12.320867|    0.061039|   -0.000183|
|         671|  -12.889112|  -12.328655|    0.061039|   -0.000183|
|         672|  -12.896891|  -12.336459|    0.061039|   -0.000183|
|         673|  -12.904636|  -12.344224|    0.061039|   -0.000183|
|         674|  -12.912385|  -12.351982|    0.061039|   -0.000183|
|         675|  -12.920152|  -12.359776|    0.061039|   -0.000183|
|         676|  -12.927936|  -12.367583|    0.061039|   -0.000183|
|         677|  -12.935713|  -12.375377|    0.061039|   -0.000183|
|         678|  -12.943475|  -12.383161|    0.061039|   -0.000183|
|         679|  -12.951279|  -12.390981|    0.061039|   -0.000183|
|         680|  -12.959055|  -12.398781|    0.061039|   -0.000183|
|         681|  -12.966852|  -12.406599|    0.061039|   -0.000183|
|         682|  -12.974656|  -12.414408|    0.061039|   -0.000183|
|         683|  -12.982480|  -12.422267|    0.061039|   -0.000183|
|         684|  -12.990253|  -12.430047|    0.061039|   -0.000183|
|         685|  -12.998047|  -12.437856|    0.061039|   -0.000183|
|         686|  -13.005848|  -12.445677|    0.061039|   -0.000183|

----------------------------- Solver Exit -------------------------------
All convergence criteria satisfied.
+-----------------------------------------------------------------------+
|      Convergence Field     |     Value    |   Criterion  |  Converged |
+-----------------------------------------------------------------------+
|                    rms[Rho]|      -13.0058|         < -13|         Yes|
+-----------------------------------------------------------------------+
-------------------------------------------------------------------------
+-----------------------------------------------------------------------+
|        File Writing Summary       |              Filename             |
+-----------------------------------------------------------------------+
|SU2 restart                        |restart_flow.dat                   |
|Paraview                           |flow.vtu                           |
|Paraview surface                   |surface_flow.vtu                   |
|CSV file                           |surface_flow.csv                   |
+-----------------------------------------------------------------------+

------------------------- Solver Postprocessing -------------------------
Deleted CNumerics container.
Deleted CIntegration container.
Deleted CSolver container.
Deleted CIteration container.
Deleted CInterpolator container.
Deleted CInterface container.
Deleted CGeometry container.
Deleted CFreeFormDefBox class.
Deleted CSurfaceMovement class.
Deleted CVolumetricMovement class.
Deleted CConfig container.
Deleted nInst container.
Deleted COutput class.
-------------------------------------------------------------------------

------------------------- Exit Success (SU2_CFD) ------------------------

