
-------------------------------------------------------------------------
|    ___ _   _ ___                                                      |
|   / __| | | |_  )   Release 7.0.5 "Blackbird"                         |
|   \__ \ |_| |/ /                                                      |
|   |___/\___//___|   Suite (Computational Fluid Dynamics Code)         |
|                                                                       |
-------------------------------------------------------------------------
| SU2 Project Website: https://su2code.github.io                        |
|                                                                       |
| The SU2 Project is maintained by the SU2 Foundation                   |
| (http://su2foundation.org)                                            |
-------------------------------------------------------------------------
| Copyright 2012-2020, SU2 Contributors                                 |
|                                                                       |
| SU2 is free software; you can redistribute it and/or                  |
| modify it under the terms of the GNU Lesser General Public            |
| License as published by the Free Software Foundation; either          |
| version 2.1 of the License, or (at your option) any later version.    |
|                                                                       |
| SU2 is distributed in the hope that it will be useful,                |
| but WITHOUT ANY WARRANTY; without even the implied warranty of        |
| MERCHANTABILITY or FITNESS FOR A PARTICULAR PURPOSE. See the GNU      |
| Lesser General Public License for more details.                       |
|                                                                       |
| You should have received a copy of the GNU Lesser General Public      |
| License along with SU2. If not, see <http://www.gnu.org/licenses/>.   |
-------------------------------------------------------------------------

Parsing config file for zone 0

----------------- Physical Case Definition ( Zone 0 ) -------------------
Compressible Euler equations.
Mach number: 0.2.
Angle of attack (AoA): -0.5 deg, and angle of sideslip (AoS): 0 deg.
No restart solution, use the values at infinity (freestream).
Non-Dimensional simulation (P=1.0, Rho=1.0, T=1.0 at the farfield).
The reference area is 1 m^2.
The semi-span will be computed using the max y(3D) value.
The reference length is 1 m.
Reference origin for moment evaluation is (0.25, 0, 0).
Surface(s) where the force coefficients are evaluated: airfoil.

Surface(s) plotted in the output file: airfoil.
Surface(s) affected by the design variables: airfoil.
Input mesh file name: mesh_NACA0012_inv_deform.su2

--------------- Space Numerical Integration ( Zone 0 ) ------------------
Jameson-Schmidt-Turkel scheme (2nd order in space) for the flow inviscid terms.
JST viscous coefficients (2nd & 4th): 0.5, 0.02.
The method includes a grid stretching correction (p = 0.3).
Gradient for upwind reconstruction: Green-Gauss.
Gradient for viscous and source terms: Green-Gauss.

--------------- Time Numerical Integration  ( Zone 0 ) ------------------
Local time stepping (steady state simulation).
Euler implicit method for the flow equations.
FGMRES is used for solving the linear system.
Using a LU-SGS preconditioning.
Convergence criteria of the linear solver: 0.0001.
Max number of linear iterations: 2.
V Multigrid Cycle, with 2 multigrid levels.
Damping factor for the residual restriction: 1.
Damping factor for the correction prolongation: 1.
No CFL adaptation.
+-------------------------------------------+
|  MG Level| Presmooth|PostSmooth|CorrectSmo|
+-------------------------------------------+
|         0|         1|         0|         0|
|         1|         2|         0|         0|
|         2|         3|         0|         0|
+-------------------------------------------+
Courant-Friedrichs-Lewy number:       10

------------------ Convergence Criteria  ( Zone 0 ) ---------------------
Maximum number of solver subiterations: 1000.
Begin convergence monitoring at iteration 10.
Residual minimum value: 1e-13.
Cauchy series min. value: 1e-06.
Number of Cauchy elements: 100.
Begin windowed time average at iteration 0.

-------------------- Output Information ( Zone 0 ) ----------------------
Writing solution files every 250 iterations.
Writing the convergence history file every 1 inner iterations.
Writing the screen convergence history every 1 inner iterations.
The tabular file format is CSV (.csv).
Convergence history file name: history_direct.
Forces breakdown file name: forces_breakdown.dat.
Surface file name: surface_flow.
Volume file name: flow.
Restart file name: restart_flow.dat.

------------- Config File Boundary Information ( Zone 0 ) ---------------
+-----------------------------------------------------------------------+
|                        Marker Type|                        Marker Name|
+-----------------------------------------------------------------------+
|                         Euler wall|                            airfoil|
+-----------------------------------------------------------------------+
|                          Far-field|                           farfield|
+-----------------------------------------------------------------------+

-------------------- Output Preprocessing ( Zone 0 ) --------------------
Screen output fields: INNER_ITER, RMS_DENSITY, RMS_ENERGY, LIFT, DRAG
History output group(s): ITER, RMS_RES, AERO_COEFF
Convergence field(s): RMS_DENSITY
Warning: No (valid) fields chosen for time convergence monitoring. Time convergence monitoring inactive.
Volume output fields: COORDINATES, SOLUTION, PRIMITIVE

------------------- Geometry Preprocessing ( Zone 0 ) -------------------
Two dimensional problem.
5233 grid points.
10216 volume elements.
2 surface markers.
200 boundary elements in index 0 (Marker = airfoil).
50 boundary elements in index 1 (Marker = farfield).
10216 triangles.
Setting point connectivity.
Renumbering points (Reverse Cuthill McKee Ordering).
Recomputing point connectivity.
Setting element connectivity.
Checking the numerical grid orientation.
Identifying edges and vertices.
Computing centers of gravity.
Setting the control volume structure.
Area of the computational grid: 1253.25.
Searching for the closest normal neighbors to the surfaces.
Storing a mapping from global to local point index.
Compute the surface curvature.
Max K: 7835.1. Mean K: 34.8203. Standard deviation K: 494.448.
Checking for periodicity.
Computing mesh quality statistics for the dual control volumes.
+--------------------------------------------------------------+
|           Mesh Quality Metric|        Minimum|        Maximum|
+--------------------------------------------------------------+
|    Orthogonality Angle (deg.)|        62.6722|        89.7085|
|     CV Face Area Aspect Ratio|              1|        7.18345|
|           CV Sub-Volume Ratio|        1.00285|        6.47829|
+--------------------------------------------------------------+
Setting the multigrid structure.
+-------------------------------------------+
|  MG Level|       CVs|Aggl. Rate|       CFL|
+-------------------------------------------+
|         0|      5233|    1/1.00|        10|
|         1|      1533|    1/3.41|   8.11871|
|         2|       443|    1/3.46|    6.5465|
+-------------------------------------------+
Finding max control volume width.
Wetted area = 2.03922 m.
Area projection in the x-plane = 0.119982 m, y-plane = 0.999845 m.
Max. coordinate in the x-direction = 1 m, y-direction = 0.0600008 m.
Min. coordinate in the x-direction = 0 m, y-direction = -0.060013 m.
Checking if Euler & Symmetry markers are straight/plane:
Boundary marker airfoil is NOT a single straight.
Computing wall distances.

-------------------- Solver Preprocessing ( Zone 0 ) --------------------
Inviscid flow: Computing density based on free-stream
temperature and pressure using the ideal gas law.
Force coefficients computed using free-stream values.

-- Models:
+------------------------------------------------------------------------------+
|          Viscosity Model|        Conductivity Model|              Fluid Model|
+------------------------------------------------------------------------------+
|                        -|                         -|             STANDARD_AIR|
+------------------------------------------------------------------------------+
-- Fluid properties:
+------------------------------------------------------------------------------+
|                  Name|    Dim. value|    Ref. value|      Unit|Non-dim. value|
+------------------------------------------------------------------------------+
|          Gas Constant|       287.058|       287.058|  N.m/kg.K|             1|
|      Spec. Heat Ratio|             -|             -|         -|           1.4|
+------------------------------------------------------------------------------+
-- Initial and free-stream conditions:
+------------------------------------------------------------------------------+
|                  Name|    Dim. value|    Ref. value|      Unit|Non-dim. value|
+------------------------------------------------------------------------------+
|       Static Pressure|        101325|        101325|        Pa|             1|
|               Density|       1.22498|       1.22498|    kg/m^3|             1|
|           Temperature|        288.15|        288.15|         K|             1|
|          Total Energy|        209105|       82715.8|   m^2/s^2|         2.528|
|            Velocity-X|       68.0568|       287.603|       m/s|      0.236634|
|            Velocity-Y|     -0.593923|       287.603|       m/s|   -0.00206508|
|    Velocity Magnitude|       68.0594|       287.603|       m/s|      0.236643|
+------------------------------------------------------------------------------+
|           Mach Number|             -|             -|         -|           0.2|
+------------------------------------------------------------------------------+
Initialize Jacobian structure (Euler). MG level: 0.
Initialize Jacobian structure (Euler). MG level: 1.
Initialize Jacobian structure (Euler). MG level: 2.

------------------- Numerics Preprocessing ( Zone 0 ) -------------------

----------------- Integration Preprocessing ( Zone 0 ) ------------------

------------------- Iteration Preprocessing ( Zone 0 ) ------------------
Euler/Navier-Stokes/RANS fluid iteration.

------------------------------ Begin Solver -----------------------------

Simulation Run using the Single-zone Driver
+----------------------------------------------------------------+
|  Inner_Iter|    rms[Rho]|   rms[RhoE]|          CL|          CD|
+----------------------------------------------------------------+
|           0|   -4.192739|   -3.645211|   -0.283478|    0.742643|
|           1|   -4.313782|   -3.758208|    0.025369|   -0.020035|
|           2|   -4.428375|   -3.877266|    0.058360|   -0.126103|
|           3|   -4.423122|   -3.865679|    0.002188|   -0.028367|
|           4|   -4.361491|   -3.810974|   -0.072071|    0.070363|
|           5|   -4.387071|   -3.838309|   -0.070487|    0.069672|
|           6|   -4.476507|   -3.921456|   -0.017743|   -0.011294|
|           7|   -4.418965|   -3.871723|   -0.009491|   -0.040978|
|           8|   -4.671922|   -4.116606|   -0.042349|    0.008984|
|           9|   -4.554597|   -4.006121|   -0.056693|    0.037331|
|          10|   -4.832940|   -4.283341|   -0.045101|    0.004486|
|          11|   -4.796943|   -4.245227|   -0.035889|   -0.022816|
|          12|   -4.885947|   -4.338612|   -0.039664|   -0.005439|
|          13|   -5.113550|   -4.558731|   -0.047489|    0.018186|
|          14|   -5.019339|   -4.469595|   -0.050255|    0.009926|
|          15|   -5.265295|   -4.717545|   -0.047471|   -0.011232|
|          16|   -5.270024|   -4.718252|   -0.044912|   -0.010529|
|          17|   -5.357711|   -4.811156|   -0.045534|    0.006543|
|          18|   -5.549186|   -4.997022|   -0.047764|    0.011013|
|          19|   -5.526805|   -4.976436|   -0.049840|   -0.000674|
|          20|   -5.657000|   -5.108396|   -0.050459|   -0.007813|
|          21|   -5.649153|   -5.100730|   -0.049250|   -0.001583|
|          22|   -5.688340|   -5.143939|   -0.047837|    0.005292|
|          23|   -5.797103|   -5.249155|   -0.048544|    0.002667|
|          24|   -5.688679|   -5.141892|   -0.051060|   -0.002608|
|          25|   -5.833762|   -5.286612|   -0.052117|   -0.002087|
|          26|   -5.760395|   -5.211275|   -0.050430|    0.001382|
|          27|   -5.808410|   -5.263247|   -0.048930|    0.001686|
|          28|   -5.929853|   -5.379351|   -0.050012|   -0.000533|
|          29|   -5.852292|   -5.304562|   -0.052035|   -0.001084|
|          30|   -6.006273|   -5.459661|   -0.052299|    0.000369|
|          31|   -5.973876|   -5.426208|   -0.051031|    0.000993|
|          32|   -6.030183|   -5.485495|   -0.050574|    0.000027|
|          33|   -6.129448|   -5.582006|   -0.051622|   -0.000697|
|          34|   -6.118763|   -5.571400|   -0.052727|   -0.000179|
|          35|   -6.191962|   -5.645292|   -0.052769|    0.000577|
|          36|   -6.224614|   -5.676856|   -0.052246|    0.000475|
|          37|   -6.250486|   -5.704805|   -0.052207|   -0.000179|
|          38|   -6.289525|   -5.745594|   -0.052788|   -0.000429|
|          39|   -6.309780|   -5.765309|   -0.053356|   -0.000081|
|          40|   -6.336253|   -5.790254|   -0.053450|    0.000304|
|          41|   -6.358405|   -5.811739|   -0.053266|    0.000233|
|          42|   -6.378069|   -5.832261|   -0.053320|   -0.000082|
|          43|   -6.410176|   -5.864152|   -0.053691|   -0.000183|
|          44|   -6.427701|   -5.880307|   -0.054034|   -0.000015|
|          45|   -6.448264|   -5.899915|   -0.054132|    0.000125|
|          46|   -6.473101|   -5.923722|   -0.054128|    0.000073|
|          47|   -6.486097|   -5.935975|   -0.054256|   -0.000037|
|          48|   -6.520156|   -5.969611|   -0.054535|   -0.000044|
|          49|   -6.553261|   -6.002477|   -0.054789|    0.000026|
|          50|   -6.571508|   -6.020399|   -0.054904|    0.000049|
|          51|   -6.599292|   -6.046586|   -0.054962|    0.000005|
|          52|   -6.622980|   -6.068754|   -0.055075|   -0.000032|
|          53|   -6.647236|   -6.093282|   -0.055251|   -0.000016|
|          54|   -6.680813|   -6.128189|   -0.055425|    0.000020|
|          55|   -6.711536|   -6.159957|   -0.055546|    0.000025|
|          56|   -6.738777|   -6.187162|   -0.055623|   -0.000005|
|          57|   -6.766149|   -6.213954|   -0.055704|   -0.000031|
|          58|   -6.793173|   -6.241105|   -0.055815|   -0.000024|
|          59|   -6.822353|   -6.271514|   -0.055943|   -0.000000|
|          60|   -6.853287|   -6.304189|   -0.056059|    0.000010|
|          61|   -6.882946|   -6.335574|   -0.056156|   -0.000003|
|          62|   -6.910675|   -6.365105|   -0.056246|   -0.000020|
|          63|   -6.937241|   -6.393894|   -0.056343|   -0.000022|
|          64|   -6.964086|   -6.423479|   -0.056448|   -0.000013|
|          65|   -6.992317|   -6.454819|   -0.056555|   -0.000005|
|          66|   -7.020658|   -6.486533|   -0.056657|   -0.000008|
|          67|   -7.048443|   -6.518028|   -0.056753|   -0.000014|
|          68|   -7.076223|   -6.549788|   -0.056847|   -0.000018|
|          69|   -7.102930|   -6.580293|   -0.056940|   -0.000016|
|          70|   -7.128755|   -6.609628|   -0.057033|   -0.000014|
|          71|   -7.154784|   -6.639260|   -0.057124|   -0.000015|
|          72|   -7.180336|   -6.668690|   -0.057213|   -0.000018|
|          73|   -7.206283|   -6.698922|   -0.057298|   -0.000019|
|          74|   -7.233842|   -6.731169|   -0.057382|   -0.000019|
|          75|   -7.261305|   -6.763332|   -0.057464|   -0.000019|
|          76|   -7.287205|   -6.793817|   -0.057547|   -0.000020|
|          77|   -7.311937|   -6.823199|   -0.057628|   -0.000023|
|          78|   -7.336309|   -6.852356|   -0.057708|   -0.000023|
|          79|   -7.361031|   -6.882055|   -0.057787|   -0.000023|
|          80|   -7.385936|   -6.912090|   -0.057864|   -0.000022|
|          81|   -7.410150|   -6.941370|   -0.057941|   -0.000023|
|          82|   -7.433282|   -6.969364|   -0.058017|   -0.000025|
|          83|   -7.455670|   -6.996402|   -0.058091|   -0.000026|
|          84|   -7.477816|   -7.023024|   -0.058162|   -0.000026|
|          85|   -7.499900|   -7.049420|   -0.058231|   -0.000026|
|          86|   -7.521757|   -7.075424|   -0.058298|   -0.000026|
|          87|   -7.543289|   -7.101011|   -0.058363|   -0.000027|
|          88|   -7.564577|   -7.126327|   -0.058425|   -0.000028|
|          89|   -7.585657|   -7.151396|   -0.058485|   -0.000029|
|          90|   -7.606473|   -7.176189|   -0.058542|   -0.000029|
|          91|   -7.626879|   -7.200650|   -0.058597|   -0.000030|
|          92|   -7.646783|   -7.224826|   -0.058650|   -0.000031|
|          93|   -7.666217|   -7.248847|   -0.058701|   -0.000031|
|          94|   -7.685081|   -7.272477|   -0.058751|   -0.000032|
|          95|   -7.703179|   -7.295271|   -0.058798|   -0.000033|
|          96|   -7.720482|   -7.317117|   -0.058844|   -0.000033|
|          97|   -7.737088|   -7.338156|   -0.058889|   -0.000034|
|          98|   -7.753077|   -7.358487|   -0.058932|   -0.000034|
|          99|   -7.768475|   -7.378078|   -0.058974|   -0.000035|
|         100|   -7.783265|   -7.396797|   -0.059014|   -0.000035|
|         101|   -7.797459|   -7.414580|   -0.059054|   -0.000036|
|         102|   -7.811150|   -7.431533|   -0.059092|   -0.000036|
|         103|   -7.824469|   -7.447861|   -0.059129|   -0.000037|
|         104|   -7.837518|   -7.463739|   -0.059165|   -0.000037|
|         105|   -7.850347|   -7.479264|   -0.059200|   -0.000037|
|         106|   -7.862972|   -7.494476|   -0.059234|   -0.000038|
|         107|   -7.875408|   -7.509398|   -0.059267|   -0.000038|
|         108|   -7.887678|   -7.524052|   -0.059299|   -0.000039|
|         109|   -7.899800|   -7.538450|   -0.059330|   -0.000039|
|         110|   -7.911778|   -7.552590|   -0.059361|   -0.000039|
|         111|   -7.923603|   -7.566462|   -0.059390|   -0.000039|
|         112|   -7.935267|   -7.580044|   -0.059419|   -0.000040|
|         113|   -7.946764|   -7.593288|   -0.059448|   -0.000040|
|         114|   -7.958085|   -7.606130|   -0.059475|   -0.000040|
|         115|   -7.969224|   -7.618518|   -0.059502|   -0.000041|
|         116|   -7.980177|   -7.630446|   -0.059528|   -0.000041|
|         117|   -7.990948|   -7.641938|   -0.059554|   -0.000041|
|         118|   -8.001551|   -7.653043|   -0.059579|   -0.000041|
|         119|   -8.012005|   -7.663812|   -0.059603|   -0.000041|
|         120|   -8.022331|   -7.674296|   -0.059627|   -0.000042|
|         121|   -8.032549|   -7.684542|   -0.059650|   -0.000042|
|         122|   -8.042672|   -7.694590|   -0.059672|   -0.000042|
|         123|   -8.052707|   -7.704469|   -0.059694|   -0.000042|
|         124|   -8.062654|   -7.714188|   -0.059716|   -0.000042|
|         125|   -8.072506|   -7.723741|   -0.059736|   -0.000043|
|         126|   -8.082255|   -7.733118|   -0.059757|   -0.000043|
|         127|   -8.091898|   -7.742311|   -0.059777|   -0.000043|
|         128|   -8.101431|   -7.751321|   -0.059797|   -0.000043|
|         129|   -8.110853|   -7.760153|   -0.059816|   -0.000043|
|         130|   -8.120163|   -7.768817|   -0.059835|   -0.000043|
|         131|   -8.129362|   -7.777328|   -0.059853|   -0.000043|
|         132|   -8.138453|   -7.785704|   -0.059871|   -0.000043|
|         133|   -8.147441|   -7.793966|   -0.059889|   -0.000044|
|         134|   -8.156332|   -7.802134|   -0.059906|   -0.000044|
|         135|   -8.165129|   -7.810226|   -0.059923|   -0.000044|
|         136|   -8.173834|   -7.818260|   -0.059940|   -0.000044|
|         137|   -8.182449|   -7.826247|   -0.059956|   -0.000044|
|         138|   -8.190971|   -7.834197|   -0.059972|   -0.000044|
|         139|   -8.199398|   -7.842109|   -0.059987|   -0.000044|
|         140|   -8.207726|   -7.849983|   -0.060002|   -0.000044|
|         141|   -8.215951|   -7.857812|   -0.060017|   -0.000044|
|         142|   -8.224067|   -7.865593|   -0.060032|   -0.000044|
|         143|   -8.232072|   -7.873324|   -0.060046|   -0.000044|
|         144|   -8.239963|   -7.881003|   -0.060060|   -0.000044|
|         145|   -8.247739|   -7.888630|   -0.060073|   -0.000044|
|         146|   -8.255400|   -7.896207|   -0.060087|   -0.000044|
|         147|   -8.262948|   -7.903739|   -0.060100|   -0.000044|
|         148|   -8.270387|   -7.911233|   -0.060112|   -0.000044|
|         149|   -8.277720|   -7.918697|   -0.060125|   -0.000044|
|         150|   -8.284953|   -7.926142|   -0.060137|   -0.000044|
|         151|   -8.292089|   -7.933577|   -0.060149|   -0.000044|
|         152|   -8.299134|   -7.941011|   -0.060161|   -0.000044|
|         153|   -8.306095|   -7.948455|   -0.060172|   -0.000044|
|         154|   -8.312976|   -7.955916|   -0.060183|   -0.000044|
|         155|   -8.319783|   -7.963400|   -0.060194|   -0.000044|
|         156|   -8.326521|   -7.970913|   -0.060205|   -0.000044|
|         157|   -8.333194|   -7.978457|   -0.060216|   -0.000044|
|         158|   -8.339807|   -7.986035|   -0.060226|   -0.000044|
|         159|   -8.346364|   -7.993646|   -0.060236|   -0.000044|
|         160|   -8.352869|   -8.001290|   -0.060246|   -0.000044|
|         161|   -8.359327|   -8.008967|   -0.060255|   -0.000044|
|         162|   -8.365742|   -8.016676|   -0.060265|   -0.000044|
|         163|   -8.372119|   -8.024416|   -0.060274|   -0.000044|
|         164|   -8.378462|   -8.032189|   -0.060283|   -0.000044|
|         165|   -8.384778|   -8.039996|   -0.060292|   -0.000044|
|         166|   -8.391070|   -8.047838|   -0.060301|   -0.000044|
|         167|   -8.397346|   -8.055718|   -0.060309|   -0.000044|
|         168|   -8.403610|   -8.063638|   -0.060317|   -0.000044|
|         169|   -8.409868|   -8.071601|   -0.060325|   -0.000044|
|         170|   -8.416125|   -8.079610|   -0.060333|   -0.000044|
|         171|   -8.422385|   -8.087667|   -0.060341|   -0.000044|
|         172|   -8.428653|   -8.095773|   -0.060349|   -0.000044|
|         173|   -8.434933|   -8.103930|   -0.060356|   -0.000044|
|         174|   -8.441229|   -8.112138|   -0.060363|   -0.000044|
|         175|   -8.447545|   -8.120399|   -0.060370|   -0.000044|
|         176|   -8.453883|   -8.128712|   -0.060377|   -0.000044|
|         177|   -8.460248|   -8.137077|   -0.060384|   -0.000044|
|         178|   -8.466641|   -8.145495|   -0.060391|   -0.000044|
|         179|   -8.473065|   -8.153965|   -0.060397|   -0.000044|
|         180|   -8.479523|   -8.162487|   -0.060404|   -0.000044|
|         181|   -8.486018|   -8.171062|   -0.060410|   -0.000043|
|         182|   -8.492552|   -8.179689|   -0.060416|   -0.000043|
|         183|   -8.499127|   -8.188370|   -0.060422|   -0.000043|
|         184|   -8.505746|   -8.197103|   -0.060428|   -0.000043|
|         185|   -8.512410|   -8.205891|   -0.060434|   -0.000043|
|         186|   -8.519122|   -8.214733|   -0.060439|   -0.000043|
|         187|   -8.525884|   -8.223630|   -0.060445|   -0.000043|
|         188|   -8.532697|   -8.232582|   -0.060450|   -0.000043|
|         189|   -8.539563|   -8.241589|   -0.060455|   -0.000043|
|         190|   -8.546483|   -8.250652|   -0.060460|   -0.000043|
|         191|   -8.553459|   -8.259771|   -0.060465|   -0.000043|
|         192|   -8.560491|   -8.268945|   -0.060470|   -0.000043|
|         193|   -8.567581|   -8.278175|   -0.060475|   -0.000043|
|         194|   -8.574730|   -8.287459|   -0.060480|   -0.000043|
|         195|   -8.581938|   -8.296799|   -0.060484|   -0.000043|
|         196|   -8.589206|   -8.306194|   -0.060489|   -0.000043|
|         197|   -8.596536|   -8.315644|   -0.060493|   -0.000043|
|         198|   -8.603927|   -8.325149|   -0.060497|   -0.000043|
|         199|   -8.611381|   -8.334708|   -0.060502|   -0.000043|
|         200|   -8.618898|   -8.344323|   -0.060506|   -0.000043|
|         201|   -8.626479|   -8.353992|   -0.060510|   -0.000043|
|         202|   -8.634123|   -8.363715|   -0.060514|   -0.000043|
|         203|   -8.641832|   -8.373494|   -0.060517|   -0.000043|
|         204|   -8.649606|   -8.383327|   -0.060521|   -0.000043|
|         205|   -8.657445|   -8.393213|   -0.060525|   -0.000043|
|         206|   -8.665350|   -8.403155|   -0.060528|   -0.000042|
|         207|   -8.673320|   -8.413149|   -0.060532|   -0.000042|
|         208|   -8.681357|   -8.423198|   -0.060535|   -0.000042|
|         209|   -8.689459|   -8.433299|   -0.060539|   -0.000042|
|         210|   -8.697628|   -8.443453|   -0.060542|   -0.000042|
|         211|   -8.705863|   -8.453660|   -0.060545|   -0.000042|
|         212|   -8.714165|   -8.463920|   -0.060548|   -0.000042|
|         213|   -8.722533|   -8.474231|   -0.060551|   -0.000042|
|         214|   -8.730967|   -8.484595|   -0.060554|   -0.000042|
|         215|   -8.739468|   -8.495010|   -0.060557|   -0.000042|
|         216|   -8.748036|   -8.505477|   -0.060560|   -0.000042|
|         217|   -8.756671|   -8.515995|   -0.060563|   -0.000042|
|         218|   -8.765372|   -8.526565|   -0.060566|   -0.000042|
|         219|   -8.774140|   -8.537186|   -0.060568|   -0.000042|
|         220|   -8.782975|   -8.547858|   -0.060571|   -0.000042|
|         221|   -8.791876|   -8.558581|   -0.060574|   -0.000042|
|         222|   -8.800844|   -8.569354|   -0.060576|   -0.000042|
|         223|   -8.809879|   -8.580179|   -0.060579|   -0.000042|
|         224|   -8.818979|   -8.591054|   -0.060581|   -0.000042|
|         225|   -8.828147|   -8.601979|   -0.060583|   -0.000042|
|         226|   -8.837380|   -8.612953|   -0.060586|   -0.000042|
|         227|   -8.846680|   -8.623978|   -0.060588|   -0.000042|
|         228|   -8.856046|   -8.635051|   -0.060590|   -0.000042|
|         229|   -8.865477|   -8.646174|   -0.060592|   -0.000042|
|         230|   -8.874974|   -8.657345|   -0.060594|   -0.000042|
|         231|   -8.884536|   -8.668564|   -0.060596|   -0.000042|
|         232|   -8.894164|   -8.679831|   -0.060598|   -0.000042|
|         233|   -8.903857|   -8.691146|   -0.060600|   -0.000042|
|         234|   -8.913614|   -8.702509|   -0.060602|   -0.000042|
|         235|   -8.923437|   -8.713920|   -0.060604|   -0.000042|
|         236|   -8.933324|   -8.725377|   -0.060606|   -0.000042|
|         237|   -8.943275|   -8.736882|   -0.060607|   -0.000042|
|         238|   -8.953291|   -8.748433|   -0.060609|   -0.000042|
|         239|   -8.963370|   -8.760031|   -0.060611|   -0.000042|
|         240|   -8.973514|   -8.771675|   -0.060612|   -0.000042|
|         241|   -8.983721|   -8.783365|   -0.060614|   -0.000042|
|         242|   -8.993992|   -8.795101|   -0.060616|   -0.000042|
|         243|   -9.004326|   -8.806882|   -0.060617|   -0.000041|
|         244|   -9.014723|   -8.818709|   -0.060619|   -0.000041|
|         245|   -9.025182|   -8.830581|   -0.060620|   -0.000041|
|         246|   -9.035705|   -8.842498|   -0.060621|   -0.000041|
|         247|   -9.046289|   -8.854459|   -0.060623|   -0.000041|
|         248|   -9.056936|   -8.866464|   -0.060624|   -0.000041|
|         249|   -9.067645|   -8.878513|   -0.060625|   -0.000041|
|         250|   -9.078415|   -8.890605|   -0.060627|   -0.000041|
+-----------------------------------------------------------------------+
|        File Writing Summary       |              Filename             |
+-----------------------------------------------------------------------+
|SU2 restart                        |restart_flow.dat                   |
|Paraview                           |flow.vtu                           |
|Paraview surface                   |surface_flow.vtu                   |
|CSV file                           |surface_flow.csv                   |
+-----------------------------------------------------------------------+
+----------------------------------------------------------------+
|  Inner_Iter|    rms[Rho]|   rms[RhoE]|          CL|          CD|
+----------------------------------------------------------------+
|         251|   -9.089247|   -8.902741|   -0.060628|   -0.000041|
|         252|   -9.100139|   -8.914919|   -0.060629|   -0.000041|
|         253|   -9.111093|   -8.927140|   -0.060630|   -0.000041|
|         254|   -9.122107|   -8.939404|   -0.060632|   -0.000041|
|         255|   -9.133181|   -8.951709|   -0.060633|   -0.000041|
|         256|   -9.144316|   -8.964057|   -0.060634|   -0.000041|
|         257|   -9.155510|   -8.976445|   -0.060635|   -0.000041|
|         258|   -9.166765|   -8.988875|   -0.060636|   -0.000041|
|         259|   -9.178078|   -9.001346|   -0.060637|   -0.000041|
|         260|   -9.189451|   -9.013856|   -0.060638|   -0.000041|
|         261|   -9.200882|   -9.026407|   -0.060639|   -0.000041|
|         262|   -9.212373|   -9.038998|   -0.060640|   -0.000041|
|         263|   -9.223921|   -9.051628|   -0.060641|   -0.000041|
|         264|   -9.235528|   -9.064298|   -0.060642|   -0.000041|
|         265|   -9.247192|   -9.077006|   -0.060643|   -0.000041|
|         266|   -9.258914|   -9.089753|   -0.060644|   -0.000041|
|         267|   -9.270694|   -9.102537|   -0.060645|   -0.000041|
|         268|   -9.282530|   -9.115360|   -0.060645|   -0.000041|
|         269|   -9.294423|   -9.128220|   -0.060646|   -0.000041|
|         270|   -9.306373|   -9.141116|   -0.060647|   -0.000041|
|         271|   -9.318380|   -9.154050|   -0.060648|   -0.000041|
|         272|   -9.330442|   -9.167020|   -0.060649|   -0.000041|
|         273|   -9.342560|   -9.180025|   -0.060649|   -0.000041|
|         274|   -9.354734|   -9.193066|   -0.060650|   -0.000041|
|         275|   -9.366962|   -9.206143|   -0.060651|   -0.000041|
|         276|   -9.379246|   -9.219254|   -0.060651|   -0.000041|
|         277|   -9.391585|   -9.232399|   -0.060652|   -0.000041|
|         278|   -9.403978|   -9.245578|   -0.060653|   -0.000041|
|         279|   -9.416426|   -9.258790|   -0.060653|   -0.000041|
|         280|   -9.428927|   -9.272035|   -0.060654|   -0.000041|
|         281|   -9.441482|   -9.285313|   -0.060655|   -0.000041|
|         282|   -9.454091|   -9.298623|   -0.060655|   -0.000041|
|         283|   -9.466752|   -9.311965|   -0.060656|   -0.000041|
|         284|   -9.479467|   -9.325337|   -0.060656|   -0.000041|
|         285|   -9.492234|   -9.338741|   -0.060657|   -0.000041|
|         286|   -9.505054|   -9.352174|   -0.060658|   -0.000041|
|         287|   -9.517926|   -9.365637|   -0.060658|   -0.000041|
|         288|   -9.530850|   -9.379130|   -0.060659|   -0.000041|
|         289|   -9.543825|   -9.392651|   -0.060659|   -0.000041|
|         290|   -9.556852|   -9.406201|   -0.060660|   -0.000041|
|         291|   -9.569930|   -9.419778|   -0.060660|   -0.000041|
|         292|   -9.583059|   -9.433382|   -0.060661|   -0.000041|
|         293|   -9.596238|   -9.447013|   -0.060661|   -0.000041|
|         294|   -9.609468|   -9.460669|   -0.060661|   -0.000041|
|         295|   -9.622748|   -9.474352|   -0.060662|   -0.000041|
|         296|   -9.636077|   -9.488059|   -0.060662|   -0.000041|
|         297|   -9.649456|   -9.501790|   -0.060663|   -0.000041|
|         298|   -9.662885|   -9.515545|   -0.060663|   -0.000041|
|         299|   -9.676362|   -9.529323|   -0.060664|   -0.000041|
|         300|   -9.689888|   -9.543123|   -0.060664|   -0.000041|
|         301|   -9.703463|   -9.556946|   -0.060664|   -0.000041|
|         302|   -9.717085|   -9.570789|   -0.060665|   -0.000041|
|         303|   -9.730756|   -9.584652|   -0.060665|   -0.000041|
|         304|   -9.744474|   -9.598536|   -0.060665|   -0.000041|
|         305|   -9.758239|   -9.612438|   -0.060666|   -0.000041|
|         306|   -9.772052|   -9.626359|   -0.060666|   -0.000041|
|         307|   -9.785911|   -9.640297|   -0.060666|   -0.000041|
|         308|   -9.799817|   -9.654252|   -0.060667|   -0.000041|
|         309|   -9.813769|   -9.668223|   -0.060667|   -0.000041|
|         310|   -9.827767|   -9.682210|   -0.060667|   -0.000041|
|         311|   -9.841811|   -9.696211|   -0.060668|   -0.000041|
|         312|   -9.855900|   -9.710226|   -0.060668|   -0.000041|
|         313|   -9.870034|   -9.724254|   -0.060668|   -0.000041|
|         314|   -9.884213|   -9.738294|   -0.060669|   -0.000041|
|         315|   -9.898436|   -9.752345|   -0.060669|   -0.000041|
|         316|   -9.912703|   -9.766406|   -0.060669|   -0.000041|
|         317|   -9.927015|   -9.780477|   -0.060669|   -0.000041|
|         318|   -9.941369|   -9.794556|   -0.060670|   -0.000041|
|         319|   -9.955767|   -9.808643|   -0.060670|   -0.000041|
|         320|   -9.970208|   -9.822737|   -0.060670|   -0.000041|
|         321|   -9.984691|   -9.836837|   -0.060670|   -0.000041|
|         322|   -9.999217|   -9.850941|   -0.060671|   -0.000041|
|         323|  -10.013784|   -9.865050|   -0.060671|   -0.000041|
|         324|  -10.028393|   -9.879161|   -0.060671|   -0.000041|
|         325|  -10.043043|   -9.893273|   -0.060671|   -0.000041|
|         326|  -10.057733|   -9.907387|   -0.060671|   -0.000041|
|         327|  -10.072464|   -9.921500|   -0.060672|   -0.000041|
|         328|  -10.087236|   -9.935612|   -0.060672|   -0.000041|
|         329|  -10.102046|   -9.949722|   -0.060672|   -0.000041|
|         330|  -10.116897|   -9.963828|   -0.060672|   -0.000041|
|         331|  -10.131786|   -9.977929|   -0.060672|   -0.000041|
|         332|  -10.146713|   -9.992025|   -0.060673|   -0.000041|
|         333|  -10.161678|  -10.006113|   -0.060673|   -0.000041|
|         334|  -10.176682|  -10.020194|   -0.060673|   -0.000041|
|         335|  -10.191722|  -10.034265|   -0.060673|   -0.000041|
|         336|  -10.206799|  -10.048326|   -0.060673|   -0.000041|
|         337|  -10.221912|  -10.062376|   -0.060673|   -0.000041|
|         338|  -10.237061|  -10.076412|   -0.060674|   -0.000041|
|         339|  -10.252246|  -10.090435|   -0.060674|   -0.000041|
|         340|  -10.267465|  -10.104442|   -0.060674|   -0.000041|
|         341|  -10.282718|  -10.118433|   -0.060674|   -0.000041|
|         342|  -10.298006|  -10.132406|   -0.060674|   -0.000041|
|         343|  -10.313326|  -10.146361|   -0.060674|   -0.000041|
|         344|  -10.328679|  -10.160295|   -0.060675|   -0.000041|
|         345|  -10.344065|  -10.174207|   -0.060675|   -0.000041|
|         346|  -10.359482|  -10.188098|   -0.060675|   -0.000041|
|         347|  -10.374929|  -10.201964|   -0.060675|   -0.000041|
|         348|  -10.390408|  -10.215804|   -0.060675|   -0.000041|
|         349|  -10.405915|  -10.229619|   -0.060675|   -0.000041|
|         350|  -10.421452|  -10.243406|   -0.060675|   -0.000041|
|         351|  -10.437017|  -10.257163|   -0.060675|   -0.000041|
|         352|  -10.452610|  -10.270891|   -0.060676|   -0.000041|
|         353|  -10.468230|  -10.284588|   -0.060676|   -0.000041|
|         354|  -10.483876|  -10.298252|   -0.060676|   -0.000041|
|         355|  -10.499547|  -10.311881|   -0.060676|   -0.000041|
|         356|  -10.515243|  -10.325476|   -0.060676|   -0.000041|
|         357|  -10.530963|  -10.339035|   -0.060676|   -0.000041|
|         358|  -10.546706|  -10.352557|   -0.060676|   -0.000041|
|         359|  -10.562472|  -10.366041|   -0.060676|   -0.000041|
|         360|  -10.578258|  -10.379484|   -0.060676|   -0.000041|
|         361|  -10.594065|  -10.392887|   -0.060676|   -0.000041|
|         362|  -10.609891|  -10.406249|   -0.060677|   -0.000041|
|         363|  -10.625736|  -10.419568|   -0.060677|   -0.000041|
|         364|  -10.641598|  -10.432843|   -0.060677|   -0.000041|
|         365|  -10.657477|  -10.446074|   -0.060677|   -0.000041|
|         366|  -10.673372|  -10.459259|   -0.060677|   -0.000041|
|         367|  -10.689280|  -10.472397|   -0.060677|   -0.000041|
|         368|  -10.705202|  -10.485488|   -0.060677|   -0.000041|
|         369|  -10.721137|  -10.498531|   -0.060677|   -0.000041|
|         370|  -10.737082|  -10.511525|   -0.060677|   -0.000041|
|         371|  -10.753037|  -10.524470|   -0.060677|   -0.000041|
|         372|  -10.769000|  -10.537363|   -0.060677|   -0.000041|
|         373|  -10.784972|  -10.550207|   -0.060677|   -0.000041|
|         374|  -10.800949|  -10.562998|   -0.060678|   -0.000041|
|         375|  -10.816930|  -10.575736|   -0.060678|   -0.000041|
|         376|  -10.832915|  -10.588422|   -0.060678|   -0.000041|
|         377|  -10.848902|  -10.601056|   -0.060678|   -0.000041|
|         378|  -10.864890|  -10.613635|   -0.060678|   -0.000041|
|         379|  -10.880876|  -10.626160|   -0.060678|   -0.000041|
|         380|  -10.896861|  -10.638631|   -0.060678|   -0.000041|
|         381|  -10.912841|  -10.651047|   -0.060678|   -0.000041|
|         382|  -10.928816|  -10.663408|   -0.060678|   -0.000041|
|         383|  -10.944784|  -10.675715|   -0.060678|   -0.000041|
|         384|  -10.960743|  -10.687966|   -0.060678|   -0.000041|
|         385|  -10.976692|  -10.700162|   -0.060678|   -0.000041|
|         386|  -10.992628|  -10.712303|   -0.060678|   -0.000041|
|         387|  -11.008551|  -10.724389|   -0.060678|   -0.000041|
|         388|  -11.024459|  -10.736419|   -0.060678|   -0.000041|
|         389|  -11.040349|  -10.748395|   -0.060678|   -0.000041|
|         390|  -11.056220|  -10.760316|   -0.060679|   -0.000041|
|         391|  -11.072071|  -10.772183|   -0.060679|   -0.000041|
|         392|  -11.087898|  -10.783995|   -0.060679|   -0.000041|
|         393|  -11.103701|  -10.795753|   -0.060679|   -0.000041|
|         394|  -11.119478|  -10.807459|   -0.060679|   -0.000041|
|         395|  -11.135226|  -10.819110|   -0.060679|   -0.000041|
|         396|  -11.150943|  -10.830708|   -0.060679|   -0.000041|
|         397|  -11.166629|  -10.842255|   -0.060679|   -0.000041|
|         398|  -11.182280|  -10.853749|   -0.060679|   -0.000041|
|         399|  -11.197895|  -10.865193|   -0.060679|   -0.000041|
|         400|  -11.213471|  -10.876586|   -0.060679|   -0.000041|
|         401|  -11.229008|  -10.887928|   -0.060679|   -0.000041|
|         402|  -11.244502|  -10.899222|   -0.060679|   -0.000041|
|         403|  -11.259952|  -10.910467|   -0.060679|   -0.000041|
|         404|  -11.275356|  -10.921664|   -0.060679|   -0.000041|
|         405|  -11.290711|  -10.932812|   -0.060679|   -0.000041|
|         406|  -11.306017|  -10.943915|   -0.060679|   -0.000041|
|         407|  -11.321271|  -10.954973|   -0.060679|   -0.000041|
|         408|  -11.336471|  -10.965985|   -0.060679|   -0.000041|
|         409|  -11.351614|  -10.976953|   -0.060679|   -0.000041|
|         410|  -11.366700|  -10.987878|   -0.060679|   -0.000041|
|         411|  -11.381726|  -10.998759|   -0.060679|   -0.000041|
|         412|  -11.396692|  -11.009600|   -0.060679|   -0.000041|
|         413|  -11.411594|  -11.020401|   -0.060679|   -0.000041|
|         414|  -11.426431|  -11.031160|   -0.060679|   -0.000041|
|         415|  -11.441202|  -11.041882|   -0.060679|   -0.000041|
|         416|  -11.455904|  -11.052564|   -0.060680|   -0.000041|
|         417|  -11.470536|  -11.063209|   -0.060680|   -0.000041|
|         418|  -11.485097|  -11.073818|   -0.060680|   -0.000041|
|         419|  -11.499585|  -11.084390|   -0.060680|   -0.000041|
|         420|  -11.514000|  -11.094930|   -0.060680|   -0.000041|
|         421|  -11.528339|  -11.105433|   -0.060680|   -0.000041|
|         422|  -11.542601|  -11.115906|   -0.060680|   -0.000041|
|         423|  -11.556787|  -11.126346|   -0.060680|   -0.000041|
|         424|  -11.570892|  -11.136754|   -0.060680|   -0.000041|
|         425|  -11.584919|  -11.147133|   -0.060680|   -0.000041|
|         426|  -11.598865|  -11.157482|   -0.060680|   -0.000041|
|         427|  -11.612728|  -11.167802|   -0.060680|   -0.000041|
|         428|  -11.626510|  -11.178095|   -0.060680|   -0.000041|
|         429|  -11.640211|  -11.188363|   -0.060680|   -0.000041|
|         430|  -11.653825|  -11.198599|   -0.060680|   -0.000041|
|         431|  -11.667358|  -11.208815|   -0.060680|   -0.000041|
|         432|  -11.680806|  -11.219005|   -0.060680|   -0.000041|
|         433|  -11.694170|  -11.229171|   -0.060680|   -0.000041|
|         434|  -11.707449|  -11.239314|   -0.060680|   -0.000041|
|         435|  -11.720645|  -11.249435|   -0.060680|   -0.000041|
|         436|  -11.733755|  -11.259535|   -0.060680|   -0.000041|
|         437|  -11.746783|  -11.269614|   -0.060680|   -0.000041|
|         438|  -11.759726|  -11.279673|   -0.060680|   -0.000041|
|         439|  -11.772585|  -11.289711|   -0.060680|   -0.000041|
|         440|  -11.785360|  -11.299731|   -0.060680|   -0.000041|
|         441|  -11.798055|  -11.309735|   -0.060680|   -0.000041|
|         442|  -11.810669|  -11.319725|   -0.060680|   -0.000041|
|         443|  -11.823200|  -11.329693|   -0.060680|   -0.000041|
|         444|  -11.835648|  -11.339644|   -0.060680|   -0.000041|
|         445|  -11.848021|  -11.349586|   -0.060680|   -0.000041|
|         446|  -11.860313|  -11.359510|   -0.060680|   -0.000041|
|         447|  -11.872528|  -11.369421|   -0.060680|   -0.000041|
|         448|  -11.884663|  -11.379313|   -0.060680|   -0.000041|
|         449|  -11.896725|  -11.389196|   -0.060680|   -0.000041|
|         450|  -11.908716|  -11.399071|   -0.060680|   -0.000041|
|         451|  -11.920629|  -11.408929|   -0.060680|   -0.000041|
|         452|  -11.932471|  -11.418773|   -0.060680|   -0.000041|
|         453|  -11.944245|  -11.428612|   -0.060680|   -0.000041|
|         454|  -11.955949|  -11.438440|   -0.060680|   -0.000041|
|         455|  -11.967584|  -11.448255|   -0.060680|   -0.000041|
|         456|  -11.979154|  -11.458064|   -0.060680|   -0.000041|
|         457|  -11.990656|  -11.467858|   -0.060680|   -0.000041|
|         458|  -12.002100|  -11.477652|   -0.060680|   -0.000041|
|         459|  -12.013481|  -11.487436|   -0.060680|   -0.000041|
|         460|  -12.024797|  -11.497208|   -0.060680|   -0.000041|
|         461|  -12.036061|  -11.506980|   -0.060680|   -0.000041|
|         462|  -12.047262|  -11.516739|   -0.060680|   -0.000041|
|         463|  -12.058409|  -11.526492|   -0.060680|   -0.000041|
|         464|  -12.069500|  -11.536240|   -0.060680|   -0.000041|
|         465|  -12.080546|  -11.545986|   -0.060680|   -0.000041|
|         466|  -12.091533|  -11.555721|   -0.060680|   -0.000041|
|         467|  -12.102467|  -11.565448|   -0.060680|   -0.000041|
|         468|  -12.113363|  -11.575181|   -0.060680|   -0.000041|
|         469|  -12.124209|  -11.584904|   -0.060680|   -0.000041|
|         470|  -12.135008|  -11.594625|   -0.060680|   -0.000041|
|         471|  -12.145765|  -11.604339|   -0.060680|   -0.000041|
|         472|  -12.156478|  -11.614049|   -0.060680|   -0.000041|
|         473|  -12.167152|  -11.623760|   -0.060680|   -0.000041|
|         474|  -12.177787|  -11.633468|   -0.060680|   -0.000041|
|         475|  -12.188381|  -11.643168|   -0.060680|   -0.000041|
|         476|  -12.198943|  -11.652873|   -0.060680|   -0.000041|
|         477|  -12.209466|  -11.662571|   -0.060680|   -0.000041|
|         478|  -12.219955|  -11.672267|   -0.060681|   -0.000041|
|         479|  -12.230410|  -11.681960|   -0.060681|   -0.000041|
|         480|  -12.240847|  -11.691664|   -0.060681|   -0.000041|
|         481|  -12.251243|  -11.701355|   -0.060681|   -0.000041|
|         482|  -12.261607|  -11.711043|   -0.060681|   -0.000041|
|         483|  -12.271936|  -11.720722|   -0.060681|   -0.000041|
|         484|  -12.282254|  -11.730422|   -0.060681|   -0.000041|
|         485|  -12.292546|  -11.740112|   -0.060681|   -0.000041|
|         486|  -12.302806|  -11.749801|   -0.060681|   -0.000041|
|         487|  -12.313040|  -11.759483|   -0.060681|   -0.000041|
|         488|  -12.323260|  -11.769174|   -0.060681|   -0.000041|
|         489|  -12.333463|  -11.778872|   -0.060681|   -0.000041|
|         490|  -12.343632|  -11.788553|   -0.060681|   -0.000041|
|         491|  -12.353791|  -11.798243|   -0.060681|   -0.000041|
|         492|  -12.363927|  -11.807937|   -0.060681|   -0.000041|
|         493|  -12.374045|  -11.817626|   -0.060681|   -0.000041|
|         494|  -12.384149|  -11.827318|   -0.060681|   -0.000041|
|         495|  -12.394238|  -11.837013|   -0.060681|   -0.000041|
|         496|  -12.404316|  -11.846711|   -0.060681|   -0.000041|
|         497|  -12.414376|  -11.856408|   -0.060681|   -0.000041|
|         498|  -12.424403|  -11.866094|   -0.060681|   -0.000041|
|         499|  -12.434437|  -11.875792|   -0.060681|   -0.000041|
|         500|  -12.444453|  -11.885491|   -0.060681|   -0.000041|
+-----------------------------------------------------------------------+
|        File Writing Summary       |              Filename             |
+-----------------------------------------------------------------------+
|SU2 restart                        |restart_flow.dat                   |
|Paraview                           |flow.vtu                           |
|Paraview surface                   |surface_flow.vtu                   |
|CSV file                           |surface_flow.csv                   |
+-----------------------------------------------------------------------+
+----------------------------------------------------------------+
|  Inner_Iter|    rms[Rho]|   rms[RhoE]|          CL|          CD|
+----------------------------------------------------------------+
|         501|  -12.454457|  -11.895190|   -0.060681|   -0.000041|
|         502|  -12.464453|  -11.904895|   -0.060681|   -0.000041|
|         503|  -12.474440|  -11.914601|   -0.060681|   -0.000041|
|         504|  -12.484406|  -11.924299|   -0.060681|   -0.000041|
|         505|  -12.494379|  -11.934011|   -0.060681|   -0.000041|
|         506|  -12.504333|  -11.943725|   -0.060681|   -0.000041|
|         507|  -12.514287|  -11.953438|   -0.060681|   -0.000041|
|         508|  -12.524220|  -11.963139|   -0.060681|   -0.000041|
|         509|  -12.534150|  -11.972859|   -0.060681|   -0.000041|
|         510|  -12.544088|  -11.982586|   -0.060681|   -0.000041|
|         511|  -12.554003|  -11.992302|   -0.060681|   -0.000041|
|         512|  -12.563908|  -12.002018|   -0.060681|   -0.000041|
|         513|  -12.573821|  -12.011745|   -0.060681|   -0.000041|
|         514|  -12.583712|  -12.021462|   -0.060681|   -0.000041|
|         515|  -12.593629|  -12.031211|   -0.060681|   -0.000041|
|         516|  -12.603515|  -12.040939|   -0.060681|   -0.000041|
|         517|  -12.613406|  -12.050666|   -0.060681|   -0.000041|
|         518|  -12.623280|  -12.060391|   -0.060681|   -0.000041|
|         519|  -12.633163|  -12.070137|   -0.060681|   -0.000041|
|         520|  -12.643055|  -12.079888|   -0.060681|   -0.000041|
|         521|  -12.652940|  -12.089644|   -0.060681|   -0.000041|
|         522|  -12.662793|  -12.099369|   -0.060681|   -0.000041|
|         523|  -12.672666|  -12.109125|   -0.060681|   -0.000041|
|         524|  -12.682522|  -12.118866|   -0.060681|   -0.000041|
|         525|  -12.692400|  -12.128629|   -0.060681|   -0.000041|
|         526|  -12.702253|  -12.138378|   -0.060681|   -0.000041|
|         527|  -12.712143|  -12.148166|   -0.060681|   -0.000041|
|         528|  -12.721975|  -12.157906|   -0.060681|   -0.000041|
|         529|  -12.731833|  -12.167663|   -0.060681|   -0.000041|
|         530|  -12.741701|  -12.177440|   -0.060681|   -0.000041|
|         531|  -12.751554|  -12.187203|   -0.060681|   -0.000041|
|         532|  -12.761416|  -12.196987|   -0.060681|   -0.000041|
|         533|  -12.771275|  -12.206754|   -0.060681|   -0.000041|
|         534|  -12.781108|  -12.216524|   -0.060681|   -0.000041|
|         535|  -12.790972|  -12.226305|   -0.060681|   -0.000041|
|         536|  -12.800825|  -12.236085|   -0.060681|   -0.000041|
|         537|  -12.810713|  -12.245894|   -0.060681|   -0.000041|
|         538|  -12.820560|  -12.255693|   -0.060681|   -0.000041|
|         539|  -12.830380|  -12.265445|   -0.060681|   -0.000041|
|         540|  -12.840240|  -12.275245|   -0.060681|   -0.000041|
|         541|  -12.850105|  -12.285042|   -0.060681|   -0.000041|
|         542|  -12.859939|  -12.294824|   -0.060681|   -0.000041|
|         543|  -12.869843|  -12.304665|   -0.060681|   -0.000041|
|         544|  -12.879671|  -12.314436|   -0.060681|   -0.000041|
|         545|  -12.889536|  -12.324261|   -0.060681|   -0.000041|
|         546|  -12.899378|  -12.334049|   -0.060681|   -0.000041|
|         547|  -12.909238|  -12.343858|   -0.060681|   -0.000041|
|         548|  -12.919097|  -12.353678|   -0.060681|   -0.000041|
|         549|  -12.928999|  -12.363521|   -0.060681|   -0.000041|
|         550|  -12.938864|  -12.373340|   -0.060681|   -0.000041|
|         551|  -12.948699|  -12.383138|   -0.060681|   -0.000041|
|         552|  -12.958569|  -12.392964|   -0.060681|   -0.000041|
|         553|  -12.968427|  -12.402771|   -0.060681|   -0.000041|
|         554|  -12.978273|  -12.412587|   -0.060681|   -0.000041|
|         555|  -12.988172|  -12.422458|   -0.060681|   -0.000041|
|         556|  -12.997987|  -12.432225|   -0.060681|   -0.000041|
|         557|  -13.007884|  -12.442095|   -0.060681|   -0.000041|

----------------------------- Solver Exit -------------------------------
All convergence criteria satisfied.
+-----------------------------------------------------------------------+
|      Convergence Field     |     Value    |   Criterion  |  Converged |
+-----------------------------------------------------------------------+
|                    rms[Rho]|      -13.0079|         < -13|         Yes|
+-----------------------------------------------------------------------+
-------------------------------------------------------------------------
+-----------------------------------------------------------------------+
|        File Writing Summary       |              Filename             |
+-----------------------------------------------------------------------+
|SU2 restart                        |restart_flow.dat                   |
|Paraview                           |flow.vtu                           |
|Paraview surface                   |surface_flow.vtu                   |
|CSV file                           |surface_flow.csv                   |
+-----------------------------------------------------------------------+

------------------------- Solver Postprocessing -------------------------
Deleted CNumerics container.
Deleted CIntegration container.
Deleted CSolver container.
Deleted CIteration container.
Deleted CInterpolator container.
Deleted CInterface container.
Deleted CGeometry container.
Deleted CFreeFormDefBox class.
Deleted CSurfaceMovement class.
Deleted CVolumetricMovement class.
Deleted CConfig container.
Deleted nInst container.
Deleted COutput class.
-------------------------------------------------------------------------

------------------------- Exit Success (SU2_CFD) ------------------------

