
-------------------------------------------------------------------------
|    ___ _   _ ___                                                      |
|   / __| | | |_  )   Release 7.0.5 "Blackbird"                         |
|   \__ \ |_| |/ /                                                      |
|   |___/\___//___|   Suite (Computational Fluid Dynamics Code)         |
|                                                                       |
-------------------------------------------------------------------------
| SU2 Project Website: https://su2code.github.io                        |
|                                                                       |
| The SU2 Project is maintained by the SU2 Foundation                   |
| (http://su2foundation.org)                                            |
-------------------------------------------------------------------------
| Copyright 2012-2020, SU2 Contributors                                 |
|                                                                       |
| SU2 is free software; you can redistribute it and/or                  |
| modify it under the terms of the GNU Lesser General Public            |
| License as published by the Free Software Foundation; either          |
| version 2.1 of the License, or (at your option) any later version.    |
|                                                                       |
| SU2 is distributed in the hope that it will be useful,                |
| but WITHOUT ANY WARRANTY; without even the implied warranty of        |
| MERCHANTABILITY or FITNESS FOR A PARTICULAR PURPOSE. See the GNU      |
| Lesser General Public License for more details.                       |
|                                                                       |
| You should have received a copy of the GNU Lesser General Public      |
| License along with SU2. If not, see <http://www.gnu.org/licenses/>.   |
-------------------------------------------------------------------------

Parsing config file for zone 0

----------------- Physical Case Definition ( Zone 0 ) -------------------
Compressible Euler equations.
Mach number: 0.2.
Angle of attack (AoA): 0.5 deg, and angle of sideslip (AoS): 0 deg.
No restart solution, use the values at infinity (freestream).
Non-Dimensional simulation (P=1.0, Rho=1.0, T=1.0 at the farfield).
The reference area is 1 m^2.
The semi-span will be computed using the max y(3D) value.
The reference length is 1 m.
Reference origin for moment evaluation is (0.25, 0, 0).
Surface(s) where the force coefficients are evaluated: airfoil.

Surface(s) plotted in the output file: airfoil.
Surface(s) affected by the design variables: airfoil.
Input mesh file name: mesh_NACA0012_inv_deform.su2

--------------- Space Numerical Integration ( Zone 0 ) ------------------
Jameson-Schmidt-Turkel scheme (2nd order in space) for the flow inviscid terms.
JST viscous coefficients (2nd & 4th): 0.5, 0.02.
The method includes a grid stretching correction (p = 0.3).
Gradient for upwind reconstruction: Green-Gauss.
Gradient for viscous and source terms: Green-Gauss.

--------------- Time Numerical Integration  ( Zone 0 ) ------------------
Local time stepping (steady state simulation).
Euler implicit method for the flow equations.
FGMRES is used for solving the linear system.
Using a LU-SGS preconditioning.
Convergence criteria of the linear solver: 0.0001.
Max number of linear iterations: 2.
V Multigrid Cycle, with 2 multigrid levels.
Damping factor for the residual restriction: 1.
Damping factor for the correction prolongation: 1.
No CFL adaptation.
+-------------------------------------------+
|  MG Level| Presmooth|PostSmooth|CorrectSmo|
+-------------------------------------------+
|         0|         1|         0|         0|
|         1|         2|         0|         0|
|         2|         3|         0|         0|
+-------------------------------------------+
Courant-Friedrichs-Lewy number:       10

------------------ Convergence Criteria  ( Zone 0 ) ---------------------
Maximum number of solver subiterations: 1000.
Begin convergence monitoring at iteration 10.
Residual minimum value: 1e-13.
Cauchy series min. value: 1e-06.
Number of Cauchy elements: 100.
Begin windowed time average at iteration 0.

-------------------- Output Information ( Zone 0 ) ----------------------
Writing solution files every 250 iterations.
Writing the convergence history file every 1 inner iterations.
Writing the screen convergence history every 1 inner iterations.
The tabular file format is CSV (.csv).
Convergence history file name: history_direct.
Forces breakdown file name: forces_breakdown.dat.
Surface file name: surface_flow.
Volume file name: flow.
Restart file name: restart_flow.dat.

------------- Config File Boundary Information ( Zone 0 ) ---------------
+-----------------------------------------------------------------------+
|                        Marker Type|                        Marker Name|
+-----------------------------------------------------------------------+
|                         Euler wall|                            airfoil|
+-----------------------------------------------------------------------+
|                          Far-field|                           farfield|
+-----------------------------------------------------------------------+

-------------------- Output Preprocessing ( Zone 0 ) --------------------
Screen output fields: INNER_ITER, RMS_DENSITY, RMS_ENERGY, LIFT, DRAG
History output group(s): ITER, RMS_RES, AERO_COEFF
Convergence field(s): RMS_DENSITY
Warning: No (valid) fields chosen for time convergence monitoring. Time convergence monitoring inactive.
Volume output fields: COORDINATES, SOLUTION, PRIMITIVE

------------------- Geometry Preprocessing ( Zone 0 ) -------------------
Two dimensional problem.
5233 grid points.
10216 volume elements.
2 surface markers.
200 boundary elements in index 0 (Marker = airfoil).
50 boundary elements in index 1 (Marker = farfield).
10216 triangles.
Setting point connectivity.
Renumbering points (Reverse Cuthill McKee Ordering).
Recomputing point connectivity.
Setting element connectivity.
Checking the numerical grid orientation.
Identifying edges and vertices.
Computing centers of gravity.
Setting the control volume structure.
Area of the computational grid: 1253.25.
Searching for the closest normal neighbors to the surfaces.
Storing a mapping from global to local point index.
Compute the surface curvature.
Max K: 7835.1. Mean K: 34.8203. Standard deviation K: 494.448.
Checking for periodicity.
Computing mesh quality statistics for the dual control volumes.
+--------------------------------------------------------------+
|           Mesh Quality Metric|        Minimum|        Maximum|
+--------------------------------------------------------------+
|    Orthogonality Angle (deg.)|        62.6722|        89.7085|
|     CV Face Area Aspect Ratio|              1|        7.18345|
|           CV Sub-Volume Ratio|        1.00285|        6.47829|
+--------------------------------------------------------------+
Setting the multigrid structure.
+-------------------------------------------+
|  MG Level|       CVs|Aggl. Rate|       CFL|
+-------------------------------------------+
|         0|      5233|    1/1.00|        10|
|         1|      1533|    1/3.41|   8.11871|
|         2|       443|    1/3.46|    6.5465|
+-------------------------------------------+
Finding max control volume width.
Wetted area = 2.03922 m.
Area projection in the x-plane = 0.119982 m, y-plane = 0.999845 m.
Max. coordinate in the x-direction = 1 m, y-direction = 0.0600008 m.
Min. coordinate in the x-direction = 0 m, y-direction = -0.060013 m.
Checking if Euler & Symmetry markers are straight/plane:
Boundary marker airfoil is NOT a single straight.
Computing wall distances.

-------------------- Solver Preprocessing ( Zone 0 ) --------------------
Inviscid flow: Computing density based on free-stream
temperature and pressure using the ideal gas law.
Force coefficients computed using free-stream values.

-- Models:
+------------------------------------------------------------------------------+
|          Viscosity Model|        Conductivity Model|              Fluid Model|
+------------------------------------------------------------------------------+
|                        -|                         -|             STANDARD_AIR|
+------------------------------------------------------------------------------+
-- Fluid properties:
+------------------------------------------------------------------------------+
|                  Name|    Dim. value|    Ref. value|      Unit|Non-dim. value|
+------------------------------------------------------------------------------+
|          Gas Constant|       287.058|       287.058|  N.m/kg.K|             1|
|      Spec. Heat Ratio|             -|             -|         -|           1.4|
+------------------------------------------------------------------------------+
-- Initial and free-stream conditions:
+------------------------------------------------------------------------------+
|                  Name|    Dim. value|    Ref. value|      Unit|Non-dim. value|
+------------------------------------------------------------------------------+
|       Static Pressure|        101325|        101325|        Pa|             1|
|               Density|       1.22498|       1.22498|    kg/m^3|             1|
|           Temperature|        288.15|        288.15|         K|             1|
|          Total Energy|        209105|       82715.8|   m^2/s^2|         2.528|
|            Velocity-X|       68.0568|       287.603|       m/s|      0.236634|
|            Velocity-Y|      0.593923|       287.603|       m/s|    0.00206508|
|    Velocity Magnitude|       68.0594|       287.603|       m/s|      0.236643|
+------------------------------------------------------------------------------+
|           Mach Number|             -|             -|         -|           0.2|
+------------------------------------------------------------------------------+
Initialize Jacobian structure (Euler). MG level: 0.
Initialize Jacobian structure (Euler). MG level: 1.
Initialize Jacobian structure (Euler). MG level: 2.

------------------- Numerics Preprocessing ( Zone 0 ) -------------------

----------------- Integration Preprocessing ( Zone 0 ) ------------------

------------------- Iteration Preprocessing ( Zone 0 ) ------------------
Euler/Navier-Stokes/RANS fluid iteration.

------------------------------ Begin Solver -----------------------------

Simulation Run using the Single-zone Driver
+----------------------------------------------------------------+
|  Inner_Iter|    rms[Rho]|   rms[RhoE]|          CL|          CD|
+----------------------------------------------------------------+
|           0|   -4.192739|   -3.645211|    0.185251|    0.742932|
|           1|   -4.313409|   -3.757831|    0.148661|   -0.019305|
|           2|   -4.426140|   -3.875083|    0.005750|   -0.125982|
|           3|   -4.422727|   -3.865229|   -0.075061|   -0.029235|
|           4|   -4.359503|   -3.808930|   -0.007807|    0.070232|
|           5|   -4.385311|   -3.836653|    0.100474|    0.070538|
|           6|   -4.475208|   -3.920126|    0.101219|   -0.010610|
|           7|   -4.419545|   -3.872270|    0.012937|   -0.041210|
|           8|   -4.668134|   -4.112916|   -0.020092|    0.008450|
|           9|   -4.554013|   -4.005502|    0.038426|    0.037523|
|          10|   -4.833232|   -4.283731|    0.087696|    0.005160|
|          11|   -4.797369|   -4.245645|    0.063615|   -0.022660|
|          12|   -4.886741|   -4.339414|    0.018687|   -0.005806|
|          13|   -5.110463|   -4.555578|    0.019955|    0.018019|
|          14|   -5.022666|   -4.472514|    0.054297|    0.010232|
|          15|   -5.264454|   -4.716752|    0.069561|   -0.010901|
|          16|   -5.268540|   -4.717042|    0.052354|   -0.010618|
|          17|   -5.354388|   -4.807674|    0.033853|    0.006291|
|          18|   -5.540232|   -4.987033|    0.039009|    0.011028|
|          19|   -5.517772|   -4.966851|    0.056032|   -0.000406|
|          20|   -5.647675|   -5.098317|    0.060261|   -0.007691|
|          21|   -5.640181|   -5.090340|    0.049899|   -0.001728|
|          22|   -5.670893|   -5.124695|    0.042780|    0.005179|
|          23|   -5.781751|   -5.231761|    0.048004|    0.002785|
|          24|   -5.677547|   -5.129717|    0.055348|   -0.002464|
|          25|   -5.830653|   -5.282635|    0.054701|   -0.002109|
|          26|   -5.756270|   -5.207610|    0.049668|    0.001304|
|          27|   -5.796097|   -5.250777|    0.048542|    0.001702|
|          28|   -5.925641|   -5.373138|    0.052073|   -0.000457|
|          29|   -5.844188|   -5.295187|    0.054594|   -0.001060|
|          30|   -6.013451|   -5.465898|    0.053520|    0.000341|
|          31|   -5.987304|   -5.438832|    0.051701|    0.000995|
|          32|   -6.033098|   -5.486861|    0.051944|    0.000070|
|          33|   -6.126312|   -5.576528|    0.053603|   -0.000669|
|          34|   -6.110975|   -5.561556|    0.054540|   -0.000186|
|          35|   -6.194895|   -5.645589|    0.054120|    0.000571|
|          36|   -6.233306|   -5.683040|    0.053451|    0.000499|
|          37|   -6.250408|   -5.702492|    0.053563|   -0.000145|
|          38|   -6.281863|   -5.735701|    0.054299|   -0.000414|
|          39|   -6.298925|   -5.752850|    0.054909|   -0.000084|
|          40|   -6.326326|   -5.779569|    0.054977|    0.000307|
|          41|   -6.351734|   -5.804425|    0.054776|    0.000252|
|          42|   -6.374018|   -5.827006|    0.054804|   -0.000061|
|          43|   -6.410196|   -5.862669|    0.055184|   -0.000172|
|          44|   -6.434119|   -5.885225|    0.055616|   -0.000012|
|          45|   -6.459480|   -5.909193|    0.055826|    0.000132|
|          46|   -6.490723|   -5.938439|    0.055847|    0.000086|
|          47|   -6.507510|   -5.953967|    0.055890|   -0.000026|
|          48|   -6.544630|   -5.990125|    0.056086|   -0.000039|
|          49|   -6.582762|   -6.026964|    0.056366|    0.000030|
|          50|   -6.602318|   -6.045645|    0.056574|    0.000056|
|          51|   -6.632612|   -6.074169|    0.056671|    0.000012|
|          52|   -6.658318|   -6.098660|    0.056740|   -0.000027|
|          53|   -6.680262|   -6.121245|    0.056865|   -0.000012|
|          54|   -6.709678|   -6.151798|    0.057052|    0.000025|
|          55|   -6.734978|   -6.178053|    0.057244|    0.000030|
|          56|   -6.757893|   -6.201407|    0.057385|   -0.000001|
|          57|   -6.784022|   -6.227658|    0.057485|   -0.000026|
|          58|   -6.811445|   -6.255676|    0.057594|   -0.000019|
|          59|   -6.841034|   -6.286532|    0.057739|    0.000005|
|          60|   -6.871946|   -6.319025|    0.057901|    0.000014|
|          61|   -6.901262|   -6.350154|    0.058041|   -0.000000|
|          62|   -6.928464|   -6.379712|    0.058151|   -0.000017|
|          63|   -6.954216|   -6.408502|    0.058249|   -0.000019|
|          64|   -6.980054|   -6.437798|    0.058359|   -0.000009|
|          65|   -7.007099|   -6.468445|    0.058482|   -0.000003|
|          66|   -7.034026|   -6.499152|    0.058600|   -0.000007|
|          67|   -7.060591|   -6.529834|    0.058699|   -0.000014|
|          68|   -7.087231|   -6.560682|    0.058785|   -0.000017|
|          69|   -7.113075|   -6.590287|    0.058872|   -0.000015|
|          70|   -7.139202|   -6.619857|    0.058966|   -0.000014|
|          71|   -7.166022|   -6.650360|    0.059060|   -0.000017|
|          72|   -7.192062|   -6.680501|    0.059146|   -0.000020|
|          73|   -7.218141|   -6.711021|    0.059219|   -0.000021|
|          74|   -7.244786|   -6.742147|    0.059288|   -0.000021|
|          75|   -7.270356|   -6.772023|    0.059359|   -0.000022|
|          76|   -7.294384|   -6.800470|    0.059430|   -0.000024|
|          77|   -7.317634|   -6.828451|    0.059496|   -0.000027|
|          78|   -7.340895|   -6.856592|    0.059555|   -0.000027|
|          79|   -7.364673|   -6.885235|    0.059607|   -0.000027|
|          80|   -7.388563|   -6.913840|    0.059659|   -0.000028|
|          81|   -7.411819|   -6.941618|    0.059710|   -0.000029|
|          82|   -7.434288|   -6.968503|    0.059760|   -0.000031|
|          83|   -7.456293|   -6.994871|    0.059805|   -0.000032|
|          84|   -7.478143|   -7.020985|    0.059846|   -0.000032|
|          85|   -7.499862|   -7.046810|    0.059886|   -0.000033|
|          86|   -7.521267|   -7.072170|    0.059926|   -0.000033|
|          87|   -7.542275|   -7.097064|    0.059965|   -0.000035|
|          88|   -7.562913|   -7.121558|    0.060002|   -0.000036|
|          89|   -7.583194|   -7.145616|    0.060037|   -0.000036|
|          90|   -7.603084|   -7.169183|    0.060070|   -0.000037|
|          91|   -7.622455|   -7.192151|    0.060103|   -0.000038|
|          92|   -7.641210|   -7.214465|    0.060135|   -0.000038|
|          93|   -7.659397|   -7.236244|    0.060165|   -0.000039|
|          94|   -7.677032|   -7.257457|    0.060194|   -0.000040|
|          95|   -7.694080|   -7.277989|    0.060222|   -0.000040|
|          96|   -7.710637|   -7.297994|    0.060248|   -0.000041|
|          97|   -7.726858|   -7.317750|    0.060273|   -0.000042|
|          98|   -7.742822|   -7.337386|    0.060297|   -0.000042|
|          99|   -7.758514|   -7.356832|    0.060320|   -0.000043|
|         100|   -7.773862|   -7.375907|    0.060342|   -0.000043|
|         101|   -7.788815|   -7.394480|    0.060363|   -0.000044|
|         102|   -7.803400|   -7.412569|    0.060383|   -0.000044|
|         103|   -7.817686|   -7.430269|    0.060402|   -0.000045|
|         104|   -7.831719|   -7.447634|    0.060420|   -0.000045|
|         105|   -7.845503|   -7.464660|    0.060438|   -0.000045|
|         106|   -7.859025|   -7.481312|    0.060455|   -0.000046|
|         107|   -7.872282|   -7.497572|    0.060471|   -0.000046|
|         108|   -7.885291|   -7.513443|    0.060487|   -0.000047|
|         109|   -7.898074|   -7.528934|    0.060502|   -0.000047|
|         110|   -7.910648|   -7.544054|    0.060516|   -0.000047|
|         111|   -7.923017|   -7.558813|    0.060530|   -0.000047|
|         112|   -7.935186|   -7.573213|    0.060543|   -0.000048|
|         113|   -7.947161|   -7.587251|    0.060556|   -0.000048|
|         114|   -7.958950|   -7.600913|    0.060568|   -0.000048|
|         115|   -7.970563|   -7.614193|    0.060580|   -0.000049|
|         116|   -7.982007|   -7.627102|    0.060592|   -0.000049|
|         117|   -7.993284|   -7.639654|    0.060603|   -0.000049|
|         118|   -8.004393|   -7.651862|    0.060613|   -0.000049|
|         119|   -8.015338|   -7.663740|    0.060624|   -0.000049|
|         120|   -8.026134|   -7.675320|    0.060634|   -0.000050|
|         121|   -8.036800|   -7.686641|    0.060643|   -0.000050|
|         122|   -8.047354|   -7.697749|    0.060653|   -0.000050|
|         123|   -8.057812|   -7.708673|    0.060662|   -0.000050|
|         124|   -8.068178|   -7.719425|    0.060671|   -0.000050|
|         125|   -8.078452|   -7.730000|    0.060680|   -0.000050|
|         126|   -8.088631|   -7.740391|    0.060688|   -0.000051|
|         127|   -8.098713|   -7.750593|    0.060696|   -0.000051|
|         128|   -8.108700|   -7.760610|    0.060704|   -0.000051|
|         129|   -8.118592|   -7.770448|    0.060712|   -0.000051|
|         130|   -8.128387|   -7.780109|    0.060719|   -0.000051|
|         131|   -8.138081|   -7.789596|    0.060727|   -0.000051|
|         132|   -8.147669|   -7.798912|    0.060734|   -0.000051|
|         133|   -8.157147|   -7.808061|    0.060741|   -0.000051|
|         134|   -8.166512|   -7.817048|    0.060748|   -0.000051|
|         135|   -8.175762|   -7.825880|    0.060755|   -0.000051|
|         136|   -8.184894|   -7.834561|    0.060762|   -0.000051|
|         137|   -8.193905|   -7.843099|    0.060768|   -0.000051|
|         138|   -8.202789|   -7.851500|    0.060775|   -0.000051|
|         139|   -8.211546|   -7.859770|    0.060781|   -0.000051|
|         140|   -8.220174|   -7.867919|    0.060788|   -0.000051|
|         141|   -8.228673|   -7.875958|    0.060794|   -0.000051|
|         142|   -8.237046|   -7.883900|    0.060800|   -0.000051|
|         143|   -8.245295|   -7.891759|    0.060806|   -0.000051|
|         144|   -8.253423|   -7.899548|    0.060813|   -0.000051|
|         145|   -8.261432|   -7.907280|    0.060819|   -0.000051|
|         146|   -8.269326|   -7.914963|    0.060825|   -0.000051|
|         147|   -8.277107|   -7.922605|    0.060831|   -0.000051|
|         148|   -8.284777|   -7.930212|    0.060837|   -0.000051|
|         149|   -8.292337|   -7.937788|    0.060843|   -0.000051|
|         150|   -8.299788|   -7.945335|    0.060849|   -0.000051|
|         151|   -8.307131|   -7.952853|    0.060855|   -0.000051|
|         152|   -8.314366|   -7.960343|    0.060861|   -0.000051|
|         153|   -8.321494|   -7.967806|    0.060867|   -0.000051|
|         154|   -8.328519|   -7.975242|    0.060872|   -0.000051|
|         155|   -8.335443|   -7.982657|    0.060878|   -0.000051|
|         156|   -8.342270|   -7.990051|    0.060884|   -0.000051|
|         157|   -8.349006|   -7.997430|    0.060890|   -0.000051|
|         158|   -8.355655|   -8.004799|    0.060896|   -0.000051|
|         159|   -8.362225|   -8.012161|    0.060901|   -0.000051|
|         160|   -8.368721|   -8.019522|    0.060907|   -0.000051|
|         161|   -8.375150|   -8.026887|    0.060913|   -0.000051|
|         162|   -8.381520|   -8.034260|    0.060919|   -0.000051|
|         163|   -8.387837|   -8.041646|    0.060924|   -0.000051|
|         164|   -8.394109|   -8.049049|    0.060930|   -0.000051|
|         165|   -8.400341|   -8.056474|    0.060936|   -0.000051|
|         166|   -8.406542|   -8.063922|    0.060942|   -0.000051|
|         167|   -8.412716|   -8.071398|    0.060947|   -0.000051|
|         168|   -8.418869|   -8.078904|    0.060953|   -0.000051|
|         169|   -8.425007|   -8.086441|    0.060959|   -0.000051|
|         170|   -8.431136|   -8.094011|    0.060964|   -0.000051|
|         171|   -8.437260|   -8.101616|    0.060970|   -0.000051|
|         172|   -8.443383|   -8.109258|    0.060976|   -0.000050|
|         173|   -8.449512|   -8.116937|    0.060981|   -0.000050|
|         174|   -8.455649|   -8.124657|    0.060987|   -0.000050|
|         175|   -8.461800|   -8.132417|    0.060993|   -0.000050|
|         176|   -8.467968|   -8.140220|    0.060998|   -0.000050|
|         177|   -8.474159|   -8.148068|    0.061004|   -0.000050|
|         178|   -8.480374|   -8.155962|    0.061009|   -0.000050|
|         179|   -8.486619|   -8.163904|    0.061015|   -0.000050|
|         180|   -8.492896|   -8.171895|    0.061020|   -0.000050|
|         181|   -8.499208|   -8.179936|    0.061026|   -0.000050|
|         182|   -8.505559|   -8.188027|    0.061031|   -0.000050|
|         183|   -8.511950|   -8.196169|    0.061037|   -0.000050|
|         184|   -8.518385|   -8.204363|    0.061042|   -0.000050|
|         185|   -8.524865|   -8.212609|    0.061048|   -0.000050|
|         186|   -8.531392|   -8.220906|    0.061053|   -0.000050|
|         187|   -8.537969|   -8.229256|    0.061059|   -0.000050|
|         188|   -8.544598|   -8.237658|    0.061064|   -0.000050|
|         189|   -8.551278|   -8.246110|    0.061069|   -0.000049|
|         190|   -8.558012|   -8.254613|    0.061075|   -0.000049|
|         191|   -8.564801|   -8.263167|    0.061080|   -0.000049|
|         192|   -8.571647|   -8.271773|    0.061085|   -0.000049|
|         193|   -8.578551|   -8.280430|    0.061091|   -0.000049|
|         194|   -8.585516|   -8.289142|    0.061096|   -0.000049|
|         195|   -8.592540|   -8.297904|    0.061101|   -0.000049|
|         196|   -8.599625|   -8.306716|    0.061106|   -0.000049|
|         197|   -8.606772|   -8.315580|    0.061111|   -0.000049|
|         198|   -8.613982|   -8.324496|    0.061116|   -0.000049|
|         199|   -8.621255|   -8.333462|    0.061121|   -0.000049|
|         200|   -8.628593|   -8.342480|    0.061127|   -0.000049|
|         201|   -8.635995|   -8.351547|    0.061132|   -0.000049|
|         202|   -8.643462|   -8.360663|    0.061136|   -0.000049|
|         203|   -8.650994|   -8.369828|    0.061141|   -0.000049|
|         204|   -8.658592|   -8.379042|    0.061146|   -0.000049|
|         205|   -8.666257|   -8.388304|    0.061151|   -0.000049|
|         206|   -8.673988|   -8.397614|    0.061156|   -0.000049|
|         207|   -8.681786|   -8.406972|    0.061161|   -0.000049|
|         208|   -8.689651|   -8.416377|    0.061166|   -0.000049|
|         209|   -8.697583|   -8.425829|    0.061170|   -0.000049|
|         210|   -8.705583|   -8.435328|    0.061175|   -0.000048|
|         211|   -8.713651|   -8.444874|    0.061180|   -0.000048|
|         212|   -8.721787|   -8.454466|    0.061184|   -0.000048|
|         213|   -8.729990|   -8.464103|    0.061189|   -0.000048|
|         214|   -8.738262|   -8.473787|    0.061193|   -0.000048|
|         215|   -8.746602|   -8.483515|    0.061198|   -0.000048|
|         216|   -8.755011|   -8.493288|    0.061202|   -0.000048|
|         217|   -8.763487|   -8.503105|    0.061207|   -0.000048|
|         218|   -8.772032|   -8.512966|    0.061211|   -0.000048|
|         219|   -8.780645|   -8.522870|    0.061215|   -0.000048|
|         220|   -8.789326|   -8.532817|    0.061220|   -0.000048|
|         221|   -8.798075|   -8.542806|    0.061224|   -0.000048|
|         222|   -8.806892|   -8.552836|    0.061228|   -0.000048|
|         223|   -8.815777|   -8.562907|    0.061232|   -0.000048|
|         224|   -8.824729|   -8.573019|    0.061236|   -0.000048|
|         225|   -8.833749|   -8.583170|    0.061240|   -0.000048|
|         226|   -8.842837|   -8.593361|    0.061244|   -0.000048|
|         227|   -8.851991|   -8.603591|    0.061248|   -0.000048|
|         228|   -8.861213|   -8.613860|    0.061252|   -0.000048|
|         229|   -8.870503|   -8.624167|    0.061256|   -0.000048|
|         230|   -8.879859|   -8.634512|    0.061260|   -0.000048|
|         231|   -8.889281|   -8.644894|    0.061264|   -0.000048|
|         232|   -8.898770|   -8.655312|    0.061268|   -0.000048|
|         233|   -8.908326|   -8.665767|    0.061271|   -0.000048|
|         234|   -8.917947|   -8.676257|    0.061275|   -0.000048|
|         235|   -8.927634|   -8.686782|    0.061278|   -0.000048|
|         236|   -8.937387|   -8.697341|    0.061282|   -0.000048|
|         237|   -8.947205|   -8.707933|    0.061285|   -0.000048|
|         238|   -8.957088|   -8.718559|    0.061289|   -0.000048|
|         239|   -8.967036|   -8.729217|    0.061292|   -0.000048|
|         240|   -8.977048|   -8.739907|    0.061296|   -0.000048|
|         241|   -8.987124|   -8.750627|    0.061299|   -0.000048|
|         242|   -8.997264|   -8.761378|    0.061302|   -0.000048|
|         243|   -9.007467|   -8.772158|    0.061306|   -0.000048|
|         244|   -9.017733|   -8.782967|    0.061309|   -0.000048|
|         245|   -9.028063|   -8.793805|    0.061312|   -0.000048|
|         246|   -9.038454|   -8.804670|    0.061315|   -0.000048|
|         247|   -9.048908|   -8.815562|    0.061318|   -0.000048|
|         248|   -9.059424|   -8.826480|    0.061321|   -0.000047|
|         249|   -9.070001|   -8.837424|    0.061324|   -0.000047|
|         250|   -9.080639|   -8.848393|    0.061327|   -0.000047|
+-----------------------------------------------------------------------+
|        File Writing Summary       |              Filename             |
+-----------------------------------------------------------------------+
|SU2 restart                        |restart_flow.dat                   |
|Paraview                           |flow.vtu                           |
|Paraview surface                   |surface_flow.vtu                   |
|CSV file                           |surface_flow.csv                   |
+-----------------------------------------------------------------------+
+----------------------------------------------------------------+
|  Inner_Iter|    rms[Rho]|   rms[RhoE]|          CL|          CD|
+----------------------------------------------------------------+
|         251|   -9.091338|   -8.859386|    0.061330|   -0.000047|
|         252|   -9.102097|   -8.870402|    0.061333|   -0.000047|
|         253|   -9.112916|   -8.881441|    0.061335|   -0.000047|
|         254|   -9.123794|   -8.892502|    0.061338|   -0.000047|
|         255|   -9.134732|   -8.903585|    0.061341|   -0.000047|
|         256|   -9.145728|   -8.914689|    0.061343|   -0.000047|
|         257|   -9.156782|   -8.925812|    0.061346|   -0.000047|
|         258|   -9.167895|   -8.936955|    0.061349|   -0.000047|
|         259|   -9.179064|   -8.948116|    0.061351|   -0.000047|
|         260|   -9.190291|   -8.959296|    0.061353|   -0.000047|
|         261|   -9.201575|   -8.970492|    0.061356|   -0.000047|
|         262|   -9.212914|   -8.981705|    0.061358|   -0.000047|
|         263|   -9.224309|   -8.992934|    0.061361|   -0.000047|
|         264|   -9.235760|   -9.004179|    0.061363|   -0.000047|
|         265|   -9.247265|   -9.015437|    0.061365|   -0.000047|
|         266|   -9.258825|   -9.026710|    0.061367|   -0.000047|
|         267|   -9.270438|   -9.037995|    0.061370|   -0.000047|
|         268|   -9.282105|   -9.049293|    0.061372|   -0.000047|
|         269|   -9.293825|   -9.060603|    0.061374|   -0.000047|
|         270|   -9.305598|   -9.071924|    0.061376|   -0.000047|
|         271|   -9.317422|   -9.083255|    0.061378|   -0.000047|
|         272|   -9.329298|   -9.094597|    0.061380|   -0.000047|
|         273|   -9.341225|   -9.105947|    0.061382|   -0.000047|
|         274|   -9.353202|   -9.117307|    0.061384|   -0.000047|
|         275|   -9.365230|   -9.128675|    0.061386|   -0.000047|
|         276|   -9.377307|   -9.140050|    0.061388|   -0.000047|
|         277|   -9.389433|   -9.151433|    0.061389|   -0.000047|
|         278|   -9.401608|   -9.162822|    0.061391|   -0.000047|
|         279|   -9.413831|   -9.174217|    0.061393|   -0.000047|
|         280|   -9.426101|   -9.185618|    0.061395|   -0.000047|
|         281|   -9.438419|   -9.197023|    0.061396|   -0.000047|
|         282|   -9.450782|   -9.208434|    0.061398|   -0.000047|
|         283|   -9.463192|   -9.219848|    0.061400|   -0.000047|
|         284|   -9.475648|   -9.231266|    0.061401|   -0.000047|
|         285|   -9.488148|   -9.242687|    0.061403|   -0.000047|
|         286|   -9.500692|   -9.254111|    0.061404|   -0.000047|
|         287|   -9.513281|   -9.265537|    0.061406|   -0.000047|
|         288|   -9.525912|   -9.276965|    0.061407|   -0.000047|
|         289|   -9.538587|   -9.288394|    0.061409|   -0.000047|
|         290|   -9.551303|   -9.299825|    0.061410|   -0.000047|
|         291|   -9.564061|   -9.311256|    0.061411|   -0.000047|
|         292|   -9.576861|   -9.322688|    0.061413|   -0.000047|
|         293|   -9.589700|   -9.334120|    0.061414|   -0.000047|
|         294|   -9.602580|   -9.345553|    0.061415|   -0.000047|
|         295|   -9.615498|   -9.356984|    0.061417|   -0.000047|
|         296|   -9.628456|   -9.368416|    0.061418|   -0.000047|
|         297|   -9.641451|   -9.379846|    0.061419|   -0.000047|
|         298|   -9.654484|   -9.391275|    0.061420|   -0.000047|
|         299|   -9.667554|   -9.402704|    0.061421|   -0.000047|
|         300|   -9.680661|   -9.414130|    0.061422|   -0.000047|
|         301|   -9.693803|   -9.425556|    0.061424|   -0.000047|
|         302|   -9.706980|   -9.436979|    0.061425|   -0.000047|
|         303|   -9.720191|   -9.448401|    0.061426|   -0.000047|
|         304|   -9.733437|   -9.459821|    0.061427|   -0.000047|
|         305|   -9.746716|   -9.471238|    0.061428|   -0.000047|
|         306|   -9.760027|   -9.482654|    0.061429|   -0.000047|
|         307|   -9.773370|   -9.494068|    0.061430|   -0.000047|
|         308|   -9.786745|   -9.505479|    0.061431|   -0.000047|
|         309|   -9.800150|   -9.516888|    0.061432|   -0.000047|
|         310|   -9.813585|   -9.528294|    0.061432|   -0.000047|
|         311|   -9.827050|   -9.539699|    0.061433|   -0.000047|
|         312|   -9.840543|   -9.551101|    0.061434|   -0.000047|
|         313|   -9.854065|   -9.562501|    0.061435|   -0.000047|
|         314|   -9.867613|   -9.573898|    0.061436|   -0.000047|
|         315|   -9.881189|   -9.585294|    0.061437|   -0.000047|
|         316|   -9.894790|   -9.596687|    0.061437|   -0.000047|
|         317|   -9.908417|   -9.608078|    0.061438|   -0.000047|
|         318|   -9.922069|   -9.619467|    0.061439|   -0.000047|
|         319|   -9.935744|   -9.630855|    0.061440|   -0.000047|
|         320|   -9.949443|   -9.642240|    0.061440|   -0.000047|
|         321|   -9.963165|   -9.653624|    0.061441|   -0.000047|
|         322|   -9.976908|   -9.665006|    0.061442|   -0.000047|
|         323|   -9.990673|   -9.676387|    0.061442|   -0.000047|
|         324|  -10.004459|   -9.687766|    0.061443|   -0.000047|
|         325|  -10.018264|   -9.699144|    0.061444|   -0.000047|
|         326|  -10.032088|   -9.710521|    0.061444|   -0.000047|
|         327|  -10.045931|   -9.721897|    0.061445|   -0.000047|
|         328|  -10.059791|   -9.733272|    0.061446|   -0.000047|
|         329|  -10.073668|   -9.744646|    0.061446|   -0.000047|
|         330|  -10.087562|   -9.756020|    0.061447|   -0.000047|
|         331|  -10.101471|   -9.767394|    0.061447|   -0.000047|
|         332|  -10.115395|   -9.778767|    0.061448|   -0.000047|
|         333|  -10.129333|   -9.790140|    0.061448|   -0.000047|
|         334|  -10.143285|   -9.801513|    0.061449|   -0.000047|
|         335|  -10.157249|   -9.812886|    0.061449|   -0.000047|
|         336|  -10.171225|   -9.824259|    0.061450|   -0.000047|
|         337|  -10.185213|   -9.835633|    0.061450|   -0.000047|
|         338|  -10.199211|   -9.847008|    0.061451|   -0.000047|
|         339|  -10.213218|   -9.858383|    0.061451|   -0.000047|
|         340|  -10.227234|   -9.869759|    0.061452|   -0.000047|
|         341|  -10.241259|   -9.881136|    0.061452|   -0.000047|
|         342|  -10.255291|   -9.892515|    0.061452|   -0.000047|
|         343|  -10.269330|   -9.903894|    0.061453|   -0.000047|
|         344|  -10.283375|   -9.915275|    0.061453|   -0.000047|
|         345|  -10.297425|   -9.926657|    0.061454|   -0.000047|
|         346|  -10.311480|   -9.938041|    0.061454|   -0.000047|
|         347|  -10.325539|   -9.949427|    0.061454|   -0.000047|
|         348|  -10.339600|   -9.960814|    0.061455|   -0.000047|
|         349|  -10.353664|   -9.972203|    0.061455|   -0.000047|
|         350|  -10.367729|   -9.983595|    0.061455|   -0.000047|
|         351|  -10.381795|   -9.994988|    0.061456|   -0.000047|
|         352|  -10.395861|  -10.006383|    0.061456|   -0.000047|
|         353|  -10.409926|  -10.017781|    0.061456|   -0.000047|
|         354|  -10.423990|  -10.029180|    0.061457|   -0.000047|
|         355|  -10.438051|  -10.040582|    0.061457|   -0.000047|
|         356|  -10.452110|  -10.051986|    0.061457|   -0.000047|
|         357|  -10.466165|  -10.063393|    0.061458|   -0.000047|
|         358|  -10.480215|  -10.074801|    0.061458|   -0.000047|
|         359|  -10.494260|  -10.086212|    0.061458|   -0.000047|
|         360|  -10.508299|  -10.097626|    0.061458|   -0.000047|
|         361|  -10.522331|  -10.109041|    0.061459|   -0.000047|
|         362|  -10.536356|  -10.120459|    0.061459|   -0.000047|
|         363|  -10.550372|  -10.131879|    0.061459|   -0.000047|
|         364|  -10.564379|  -10.143302|    0.061459|   -0.000047|
|         365|  -10.578377|  -10.154726|    0.061460|   -0.000047|
|         366|  -10.592364|  -10.166153|    0.061460|   -0.000047|
|         367|  -10.606340|  -10.177581|    0.061460|   -0.000047|
|         368|  -10.620304|  -10.189012|    0.061460|   -0.000047|
|         369|  -10.634255|  -10.200444|    0.061460|   -0.000047|
|         370|  -10.648192|  -10.211878|    0.061461|   -0.000047|
|         371|  -10.662116|  -10.223313|    0.061461|   -0.000047|
|         372|  -10.676024|  -10.234751|    0.061461|   -0.000047|
|         373|  -10.689917|  -10.246189|    0.061461|   -0.000047|
|         374|  -10.703793|  -10.257629|    0.061461|   -0.000047|
|         375|  -10.717653|  -10.269069|    0.061462|   -0.000047|
|         376|  -10.731494|  -10.280510|    0.061462|   -0.000047|
|         377|  -10.745316|  -10.291952|    0.061462|   -0.000047|
|         378|  -10.759120|  -10.303395|    0.061462|   -0.000047|
|         379|  -10.772903|  -10.314838|    0.061462|   -0.000047|
|         380|  -10.786666|  -10.326280|    0.061462|   -0.000047|
|         381|  -10.800408|  -10.337723|    0.061463|   -0.000047|
|         382|  -10.814126|  -10.349165|    0.061463|   -0.000047|
|         383|  -10.827823|  -10.360607|    0.061463|   -0.000047|
|         384|  -10.841496|  -10.372048|    0.061463|   -0.000047|
|         385|  -10.855144|  -10.383488|    0.061463|   -0.000047|
|         386|  -10.868768|  -10.394926|    0.061463|   -0.000047|
|         387|  -10.882366|  -10.406363|    0.061463|   -0.000047|
|         388|  -10.895938|  -10.417797|    0.061463|   -0.000047|
|         389|  -10.909483|  -10.429229|    0.061464|   -0.000047|
|         390|  -10.923001|  -10.440659|    0.061464|   -0.000047|
|         391|  -10.936491|  -10.452086|    0.061464|   -0.000047|
|         392|  -10.949952|  -10.463510|    0.061464|   -0.000047|
|         393|  -10.963382|  -10.474929|    0.061464|   -0.000047|
|         394|  -10.976784|  -10.486345|    0.061464|   -0.000047|
|         395|  -10.990154|  -10.497756|    0.061464|   -0.000047|
|         396|  -11.003493|  -10.509164|    0.061464|   -0.000047|
|         397|  -11.016800|  -10.520566|    0.061464|   -0.000047|
|         398|  -11.030075|  -10.531963|    0.061465|   -0.000047|
|         399|  -11.043317|  -10.543354|    0.061465|   -0.000047|
|         400|  -11.056525|  -10.554738|    0.061465|   -0.000047|
|         401|  -11.069698|  -10.566117|    0.061465|   -0.000047|
|         402|  -11.082838|  -10.577488|    0.061465|   -0.000047|
|         403|  -11.095942|  -10.588852|    0.061465|   -0.000047|
|         404|  -11.109009|  -10.600208|    0.061465|   -0.000047|
|         405|  -11.122041|  -10.611556|    0.061465|   -0.000047|
|         406|  -11.135036|  -10.622896|    0.061465|   -0.000047|
|         407|  -11.147994|  -10.634226|    0.061465|   -0.000047|
|         408|  -11.160914|  -10.645547|    0.061465|   -0.000047|
|         409|  -11.173796|  -10.656860|    0.061466|   -0.000047|
|         410|  -11.186638|  -10.668160|    0.061466|   -0.000047|
|         411|  -11.199442|  -10.679450|    0.061466|   -0.000047|
|         412|  -11.212207|  -10.690730|    0.061466|   -0.000047|
|         413|  -11.224931|  -10.701998|    0.061466|   -0.000047|
|         414|  -11.237616|  -10.713254|    0.061466|   -0.000047|
|         415|  -11.250259|  -10.724498|    0.061466|   -0.000047|
|         416|  -11.262861|  -10.735728|    0.061466|   -0.000047|
|         417|  -11.275422|  -10.746945|    0.061466|   -0.000047|
|         418|  -11.287942|  -10.758150|    0.061466|   -0.000047|
|         419|  -11.300420|  -10.769340|    0.061466|   -0.000047|
|         420|  -11.312855|  -10.780515|    0.061466|   -0.000047|
|         421|  -11.325247|  -10.791675|    0.061466|   -0.000047|
|         422|  -11.337596|  -10.802819|    0.061466|   -0.000047|
|         423|  -11.349903|  -10.813949|    0.061466|   -0.000047|
|         424|  -11.362167|  -10.825062|    0.061466|   -0.000047|
|         425|  -11.374387|  -10.836159|    0.061466|   -0.000047|
|         426|  -11.386563|  -10.847239|    0.061467|   -0.000047|
|         427|  -11.398696|  -10.858302|    0.061467|   -0.000047|
|         428|  -11.410785|  -10.869347|    0.061467|   -0.000047|
|         429|  -11.422830|  -10.880375|    0.061467|   -0.000047|
|         430|  -11.434830|  -10.891383|    0.061467|   -0.000047|
|         431|  -11.446787|  -10.902373|    0.061467|   -0.000047|
|         432|  -11.458698|  -10.913344|    0.061467|   -0.000047|
|         433|  -11.470567|  -10.924295|    0.061467|   -0.000047|
|         434|  -11.482391|  -10.935228|    0.061467|   -0.000047|
|         435|  -11.494171|  -10.946141|    0.061467|   -0.000047|
|         436|  -11.505905|  -10.957031|    0.061467|   -0.000047|
|         437|  -11.517597|  -10.967904|    0.061467|   -0.000047|
|         438|  -11.529244|  -10.978755|    0.061467|   -0.000047|
|         439|  -11.540846|  -10.989583|    0.061467|   -0.000047|
|         440|  -11.552405|  -11.000392|    0.061467|   -0.000047|
|         441|  -11.563919|  -11.011178|    0.061467|   -0.000047|
|         442|  -11.575392|  -11.021944|    0.061467|   -0.000047|
|         443|  -11.586821|  -11.032688|    0.061467|   -0.000047|
|         444|  -11.598205|  -11.043408|    0.061467|   -0.000047|
|         445|  -11.609546|  -11.054108|    0.061467|   -0.000047|
|         446|  -11.620845|  -11.064784|    0.061467|   -0.000047|
|         447|  -11.632100|  -11.075437|    0.061467|   -0.000047|
|         448|  -11.643315|  -11.086069|    0.061467|   -0.000047|
|         449|  -11.654486|  -11.096678|    0.061467|   -0.000047|
|         450|  -11.665617|  -11.107263|    0.061467|   -0.000047|
|         451|  -11.676703|  -11.117826|    0.061467|   -0.000047|
|         452|  -11.687751|  -11.128365|    0.061467|   -0.000047|
|         453|  -11.698757|  -11.138881|    0.061467|   -0.000047|
|         454|  -11.709722|  -11.149374|    0.061467|   -0.000047|
|         455|  -11.720649|  -11.159845|    0.061467|   -0.000047|
|         456|  -11.731535|  -11.170292|    0.061468|   -0.000047|
|         457|  -11.742382|  -11.180716|    0.061468|   -0.000047|
|         458|  -11.753190|  -11.191117|    0.061468|   -0.000047|
|         459|  -11.763960|  -11.201497|    0.061468|   -0.000047|
|         460|  -11.774692|  -11.211851|    0.061468|   -0.000047|
|         461|  -11.785384|  -11.222181|    0.061468|   -0.000047|
|         462|  -11.796043|  -11.232493|    0.061468|   -0.000047|
|         463|  -11.806662|  -11.242780|    0.061468|   -0.000047|
|         464|  -11.817245|  -11.253041|    0.061468|   -0.000047|
|         465|  -11.827796|  -11.263284|    0.061468|   -0.000047|
|         466|  -11.838309|  -11.273503|    0.061468|   -0.000047|
|         467|  -11.848789|  -11.283702|    0.061468|   -0.000047|
|         468|  -11.859234|  -11.293877|    0.061468|   -0.000047|
|         469|  -11.869642|  -11.304028|    0.061468|   -0.000047|
|         470|  -11.880025|  -11.314162|    0.061468|   -0.000047|
|         471|  -11.890370|  -11.324271|    0.061468|   -0.000047|
|         472|  -11.900683|  -11.334360|    0.061468|   -0.000047|
|         473|  -11.910964|  -11.344426|    0.061468|   -0.000047|
|         474|  -11.921220|  -11.354478|    0.061468|   -0.000047|
|         475|  -11.931439|  -11.364502|    0.061468|   -0.000047|
|         476|  -11.941635|  -11.374512|    0.061468|   -0.000047|
|         477|  -11.951798|  -11.384499|    0.061468|   -0.000047|
|         478|  -11.961927|  -11.394459|    0.061468|   -0.000047|
|         479|  -11.972035|  -11.404409|    0.061468|   -0.000047|
|         480|  -11.982115|  -11.414337|    0.061468|   -0.000047|
|         481|  -11.992168|  -11.424249|    0.061468|   -0.000047|
|         482|  -12.002197|  -11.434141|    0.061468|   -0.000047|
|         483|  -12.012198|  -11.444016|    0.061468|   -0.000047|
|         484|  -12.022172|  -11.453868|    0.061468|   -0.000047|
|         485|  -12.032123|  -11.463707|    0.061468|   -0.000047|
|         486|  -12.042054|  -11.473532|    0.061468|   -0.000047|
|         487|  -12.051955|  -11.483332|    0.061468|   -0.000047|
|         488|  -12.061837|  -11.493120|    0.061468|   -0.000047|
|         489|  -12.071699|  -11.502892|    0.061468|   -0.000047|
|         490|  -12.081537|  -11.512648|    0.061468|   -0.000047|
|         491|  -12.091350|  -11.522384|    0.061468|   -0.000047|
|         492|  -12.101147|  -11.532110|    0.061468|   -0.000047|
|         493|  -12.110923|  -11.541820|    0.061468|   -0.000047|
|         494|  -12.120680|  -11.551515|    0.061468|   -0.000047|
|         495|  -12.130423|  -11.561200|    0.061468|   -0.000047|
|         496|  -12.140140|  -11.570867|    0.061468|   -0.000047|
|         497|  -12.149841|  -11.580523|    0.061468|   -0.000047|
|         498|  -12.159528|  -11.590163|    0.061468|   -0.000047|
|         499|  -12.169195|  -11.599791|    0.061468|   -0.000047|
|         500|  -12.178842|  -11.609405|    0.061468|   -0.000047|
+-----------------------------------------------------------------------+
|        File Writing Summary       |              Filename             |
+-----------------------------------------------------------------------+
|SU2 restart                        |restart_flow.dat                   |
|Paraview                           |flow.vtu                           |
|Paraview surface                   |surface_flow.vtu                   |
|CSV file                           |surface_flow.csv                   |
+-----------------------------------------------------------------------+
+----------------------------------------------------------------+
|  Inner_Iter|    rms[Rho]|   rms[RhoE]|          CL|          CD|
+----------------------------------------------------------------+
|         501|  -12.188486|  -11.619014|    0.061468|   -0.000047|
|         502|  -12.198105|  -11.628608|    0.061468|   -0.000047|
|         503|  -12.207710|  -11.638187|    0.061468|   -0.000047|
|         504|  -12.217299|  -11.647756|    0.061468|   -0.000047|
|         505|  -12.226879|  -11.657318|    0.061468|   -0.000047|
|         506|  -12.236446|  -11.666869|    0.061468|   -0.000047|
|         507|  -12.245999|  -11.676411|    0.061468|   -0.000047|
|         508|  -12.255539|  -11.685943|    0.061468|   -0.000047|
|         509|  -12.265070|  -11.695464|    0.061468|   -0.000047|
|         510|  -12.274584|  -11.704979|    0.061468|   -0.000047|
|         511|  -12.284092|  -11.714487|    0.061468|   -0.000047|
|         512|  -12.293584|  -11.723976|    0.061468|   -0.000047|
|         513|  -12.303071|  -11.733468|    0.061468|   -0.000047|
|         514|  -12.312551|  -11.742954|    0.061468|   -0.000047|
|         515|  -12.322017|  -11.752425|    0.061468|   -0.000047|
|         516|  -12.331469|  -11.761890|    0.061468|   -0.000047|
|         517|  -12.340923|  -11.771356|    0.061468|   -0.000047|
|         518|  -12.350367|  -11.780810|    0.061468|   -0.000047|
|         519|  -12.359800|  -11.790262|    0.061468|   -0.000047|
|         520|  -12.369235|  -11.799714|    0.061468|   -0.000047|
|         521|  -12.378649|  -11.809146|    0.061468|   -0.000047|
|         522|  -12.388060|  -11.818573|    0.061468|   -0.000047|
|         523|  -12.397465|  -11.828007|    0.061468|   -0.000047|
|         524|  -12.406875|  -11.837436|    0.061468|   -0.000047|
|         525|  -12.416274|  -11.846858|    0.061468|   -0.000047|
|         526|  -12.425658|  -11.856268|    0.061468|   -0.000047|
|         527|  -12.435043|  -11.865680|    0.061468|   -0.000047|
|         528|  -12.444431|  -11.875092|    0.061468|   -0.000047|
|         529|  -12.453812|  -11.884506|    0.061468|   -0.000047|
|         530|  -12.463185|  -11.893906|    0.061468|   -0.000047|
|         531|  -12.472549|  -11.903299|    0.061468|   -0.000047|
|         532|  -12.481923|  -11.912708|    0.061468|   -0.000047|
|         533|  -12.491284|  -11.922101|    0.061468|   -0.000047|
|         534|  -12.500649|  -11.931503|    0.061468|   -0.000047|
|         535|  -12.510009|  -11.940899|    0.061468|   -0.000047|
|         536|  -12.519364|  -11.950284|    0.061468|   -0.000047|
|         537|  -12.528726|  -11.959682|    0.061468|   -0.000047|
|         538|  -12.538076|  -11.969067|    0.061468|   -0.000047|
|         539|  -12.547434|  -11.978459|    0.061468|   -0.000047|
|         540|  -12.556786|  -11.987845|    0.061468|   -0.000047|
|         541|  -12.566133|  -11.997239|    0.061468|   -0.000047|
|         542|  -12.575492|  -12.006632|    0.061468|   -0.000047|
|         543|  -12.584843|  -12.016018|    0.061468|   -0.000047|
|         544|  -12.594188|  -12.025399|    0.061468|   -0.000047|
|         545|  -12.603541|  -12.034798|    0.061468|   -0.000047|
|         546|  -12.612896|  -12.044187|    0.061468|   -0.000047|
|         547|  -12.622249|  -12.053583|    0.061468|   -0.000047|
|         548|  -12.631598|  -12.062969|    0.061468|   -0.000047|
|         549|  -12.640953|  -12.072365|    0.061468|   -0.000047|
|         550|  -12.650312|  -12.081759|    0.061468|   -0.000047|
|         551|  -12.659664|  -12.091163|    0.061468|   -0.000047|
|         552|  -12.669029|  -12.100560|    0.061468|   -0.000047|
|         553|  -12.678371|  -12.109944|    0.061468|   -0.000047|
|         554|  -12.687730|  -12.119348|    0.061468|   -0.000047|
|         555|  -12.697118|  -12.128765|    0.061468|   -0.000047|
|         556|  -12.706466|  -12.138162|    0.061468|   -0.000047|
|         557|  -12.715837|  -12.147574|    0.061468|   -0.000047|
|         558|  -12.725220|  -12.157003|    0.061468|   -0.000047|
|         559|  -12.734607|  -12.166415|    0.061468|   -0.000047|
|         560|  -12.743960|  -12.175817|    0.061468|   -0.000047|
|         561|  -12.753365|  -12.185253|    0.061468|   -0.000047|
|         562|  -12.762720|  -12.194659|    0.061468|   -0.000047|
|         563|  -12.772113|  -12.204084|    0.061468|   -0.000047|
|         564|  -12.781502|  -12.213515|    0.061468|   -0.000047|
|         565|  -12.790893|  -12.222942|    0.061468|   -0.000047|
|         566|  -12.800300|  -12.232385|    0.061468|   -0.000047|
|         567|  -12.809676|  -12.241819|    0.061468|   -0.000047|
|         568|  -12.819094|  -12.251264|    0.061468|   -0.000047|
|         569|  -12.828516|  -12.260720|    0.061468|   -0.000047|
|         570|  -12.837934|  -12.270164|    0.061468|   -0.000047|
|         571|  -12.847332|  -12.279622|    0.061468|   -0.000047|
|         572|  -12.856776|  -12.289094|    0.061468|   -0.000047|
|         573|  -12.866177|  -12.298526|    0.061468|   -0.000047|
|         574|  -12.875603|  -12.308001|    0.061468|   -0.000047|
|         575|  -12.885052|  -12.317480|    0.061468|   -0.000047|
|         576|  -12.894473|  -12.326928|    0.061468|   -0.000047|
|         577|  -12.903914|  -12.336409|    0.061468|   -0.000047|
|         578|  -12.913350|  -12.345891|    0.061468|   -0.000047|
|         579|  -12.922855|  -12.355431|    0.061468|   -0.000047|
|         580|  -12.932285|  -12.364891|    0.061468|   -0.000047|
|         581|  -12.941743|  -12.374374|    0.061468|   -0.000047|
|         582|  -12.951251|  -12.383914|    0.061468|   -0.000047|
|         583|  -12.960710|  -12.393412|    0.061468|   -0.000047|
|         584|  -12.970184|  -12.402916|    0.061468|   -0.000047|
|         585|  -12.979661|  -12.412416|    0.061468|   -0.000047|
|         586|  -12.989166|  -12.421963|    0.061468|   -0.000047|
|         587|  -12.998658|  -12.431473|    0.061468|   -0.000047|
|         588|  -13.008152|  -12.441023|    0.061468|   -0.000047|

----------------------------- Solver Exit -------------------------------
All convergence criteria satisfied.
+-----------------------------------------------------------------------+
|      Convergence Field     |     Value    |   Criterion  |  Converged |
+-----------------------------------------------------------------------+
|                    rms[Rho]|      -13.0082|         < -13|         Yes|
+-----------------------------------------------------------------------+
-------------------------------------------------------------------------
+-----------------------------------------------------------------------+
|        File Writing Summary       |              Filename             |
+-----------------------------------------------------------------------+
|SU2 restart                        |restart_flow.dat                   |
|Paraview                           |flow.vtu                           |
|Paraview surface                   |surface_flow.vtu                   |
|CSV file                           |surface_flow.csv                   |
+-----------------------------------------------------------------------+

------------------------- Solver Postprocessing -------------------------
Deleted CNumerics container.
Deleted CIntegration container.
Deleted CSolver container.
Deleted CIteration container.
Deleted CInterpolator container.
Deleted CInterface container.
Deleted CGeometry container.
Deleted CFreeFormDefBox class.
Deleted CSurfaceMovement class.
Deleted CVolumetricMovement class.
Deleted CConfig container.
Deleted nInst container.
Deleted COutput class.
-------------------------------------------------------------------------

------------------------- Exit Success (SU2_CFD) ------------------------

