
-------------------------------------------------------------------------
|    ___ _   _ ___                                                      |
|   / __| | | |_  )   Release 7.0.5 "Blackbird"                         |
|   \__ \ |_| |/ /                                                      |
|   |___/\___//___|   Suite (Computational Fluid Dynamics Code)         |
|                                                                       |
-------------------------------------------------------------------------
| SU2 Project Website: https://su2code.github.io                        |
|                                                                       |
| The SU2 Project is maintained by the SU2 Foundation                   |
| (http://su2foundation.org)                                            |
-------------------------------------------------------------------------
| Copyright 2012-2020, SU2 Contributors                                 |
|                                                                       |
| SU2 is free software; you can redistribute it and/or                  |
| modify it under the terms of the GNU Lesser General Public            |
| License as published by the Free Software Foundation; either          |
| version 2.1 of the License, or (at your option) any later version.    |
|                                                                       |
| SU2 is distributed in the hope that it will be useful,                |
| but WITHOUT ANY WARRANTY; without even the implied warranty of        |
| MERCHANTABILITY or FITNESS FOR A PARTICULAR PURPOSE. See the GNU      |
| Lesser General Public License for more details.                       |
|                                                                       |
| You should have received a copy of the GNU Lesser General Public      |
| License along with SU2. If not, see <http://www.gnu.org/licenses/>.   |
-------------------------------------------------------------------------

Parsing config file for zone 0

----------------- Physical Case Definition ( Zone 0 ) -------------------
Compressible Euler equations.
Mach number: 0.15.
Angle of attack (AoA): 0 deg, and angle of sideslip (AoS): 0 deg.
No restart solution, use the values at infinity (freestream).
Non-Dimensional simulation (P=1.0, Rho=1.0, T=1.0 at the farfield).
The reference area is 1 m^2.
The semi-span will be computed using the max y(3D) value.
The reference length is 1 m.
Reference origin for moment evaluation is (0.25, 0, 0).
Surface(s) where the force coefficients are evaluated: airfoil.

Surface(s) plotted in the output file: airfoil.
Surface(s) affected by the design variables: airfoil.
Input mesh file name: mesh_NACA0012_inv.su2

--------------- Space Numerical Integration ( Zone 0 ) ------------------
Jameson-Schmidt-Turkel scheme (2nd order in space) for the flow inviscid terms.
JST viscous coefficients (2nd & 4th): 0.5, 0.02.
The method includes a grid stretching correction (p = 0.3).
Gradient for upwind reconstruction: Green-Gauss.
Gradient for viscous and source terms: Green-Gauss.

--------------- Time Numerical Integration  ( Zone 0 ) ------------------
Local time stepping (steady state simulation).
Euler implicit method for the flow equations.
FGMRES is used for solving the linear system.
Using a LU-SGS preconditioning.
Convergence criteria of the linear solver: 0.0001.
Max number of linear iterations: 2.
V Multigrid Cycle, with 2 multigrid levels.
Damping factor for the residual restriction: 1.
Damping factor for the correction prolongation: 1.
No CFL adaptation.
+-------------------------------------------+
|  MG Level| Presmooth|PostSmooth|CorrectSmo|
+-------------------------------------------+
|         0|         1|         0|         0|
|         1|         2|         0|         0|
|         2|         3|         0|         0|
+-------------------------------------------+
Courant-Friedrichs-Lewy number:       10

------------------ Convergence Criteria  ( Zone 0 ) ---------------------
Maximum number of solver subiterations: 1000.
Begin convergence monitoring at iteration 10.
Residual minimum value: 1e-13.
Cauchy series min. value: 1e-06.
Number of Cauchy elements: 100.
Begin windowed time average at iteration 0.

-------------------- Output Information ( Zone 0 ) ----------------------
Writing solution files every 250 iterations.
Writing the convergence history file every 1 inner iterations.
Writing the screen convergence history every 1 inner iterations.
The tabular file format is CSV (.csv).
Convergence history file name: history_direct.
Forces breakdown file name: forces_breakdown.dat.
Surface file name: surface_flow.
Volume file name: flow.
Restart file name: restart_flow.dat.

------------- Config File Boundary Information ( Zone 0 ) ---------------
+-----------------------------------------------------------------------+
|                        Marker Type|                        Marker Name|
+-----------------------------------------------------------------------+
|                         Euler wall|                            airfoil|
+-----------------------------------------------------------------------+
|                          Far-field|                           farfield|
+-----------------------------------------------------------------------+

-------------------- Output Preprocessing ( Zone 0 ) --------------------
Screen output fields: INNER_ITER, RMS_DENSITY, RMS_ENERGY, LIFT, DRAG
History output group(s): ITER, RMS_RES, AERO_COEFF
Convergence field(s): RMS_DENSITY
Warning: No (valid) fields chosen for time convergence monitoring. Time convergence monitoring inactive.
Volume output fields: COORDINATES, SOLUTION, PRIMITIVE

------------------- Geometry Preprocessing ( Zone 0 ) -------------------
Two dimensional problem.
5233 grid points.
10216 volume elements.
2 surface markers.
200 boundary elements in index 0 (Marker = airfoil).
50 boundary elements in index 1 (Marker = farfield).
10216 triangles.
Setting point connectivity.
Renumbering points (Reverse Cuthill McKee Ordering).
Recomputing point connectivity.
Setting element connectivity.
Checking the numerical grid orientation.
Identifying edges and vertices.
Computing centers of gravity.
Setting the control volume structure.
Area of the computational grid: 1253.25.
Searching for the closest normal neighbors to the surfaces.
Storing a mapping from global to local point index.
Compute the surface curvature.
Max K: 7835.1. Mean K: 34.8252. Standard deviation K: 494.448.
Checking for periodicity.
Computing mesh quality statistics for the dual control volumes.
+--------------------------------------------------------------+
|           Mesh Quality Metric|        Minimum|        Maximum|
+--------------------------------------------------------------+
|    Orthogonality Angle (deg.)|        62.6714|        89.7089|
|     CV Face Area Aspect Ratio|        1.00001|        7.18337|
|           CV Sub-Volume Ratio|        1.00285|        6.47826|
+--------------------------------------------------------------+
Setting the multigrid structure.
+-------------------------------------------+
|  MG Level|       CVs|Aggl. Rate|       CFL|
+-------------------------------------------+
|         0|      5233|    1/1.00|        10|
|         1|      1533|    1/3.41|   8.11871|
|         2|       443|    1/3.46|    6.5465|
+-------------------------------------------+
Finding max control volume width.
Wetted area = 2.03916 m.
Area projection in the x-plane = 0.119981 m, y-plane = 0.999845 m.
Max. coordinate in the x-direction = 1 m, y-direction = 0.0600055 m.
Min. coordinate in the x-direction = 0 m, y-direction = -0.0600055 m.
Checking if Euler & Symmetry markers are straight/plane:
Boundary marker airfoil is NOT a single straight.
Computing wall distances.

-------------------- Solver Preprocessing ( Zone 0 ) --------------------
Inviscid flow: Computing density based on free-stream
temperature and pressure using the ideal gas law.
Force coefficients computed using free-stream values.

-- Models:
+------------------------------------------------------------------------------+
|          Viscosity Model|        Conductivity Model|              Fluid Model|
+------------------------------------------------------------------------------+
|                        -|                         -|             STANDARD_AIR|
+------------------------------------------------------------------------------+
-- Fluid properties:
+------------------------------------------------------------------------------+
|                  Name|    Dim. value|    Ref. value|      Unit|Non-dim. value|
+------------------------------------------------------------------------------+
|          Gas Constant|       287.058|       287.058|  N.m/kg.K|             1|
|      Spec. Heat Ratio|             -|             -|         -|           1.4|
+------------------------------------------------------------------------------+
-- Initial and free-stream conditions:
+------------------------------------------------------------------------------+
|                  Name|    Dim. value|    Ref. value|      Unit|Non-dim. value|
+------------------------------------------------------------------------------+
|       Static Pressure|        101325|        101325|        Pa|             1|
|               Density|       1.22498|       1.22498|    kg/m^3|             1|
|           Temperature|        288.15|        288.15|         K|             1|
|          Total Energy|        208092|       82715.8|   m^2/s^2|       2.51575|
|            Velocity-X|       51.0446|       287.603|       m/s|      0.177482|
|            Velocity-Y|             0|       287.603|       m/s|             0|
|    Velocity Magnitude|       51.0446|       287.603|       m/s|      0.177482|
+------------------------------------------------------------------------------+
|           Mach Number|             -|             -|         -|          0.15|
+------------------------------------------------------------------------------+
Initialize Jacobian structure (Euler). MG level: 0.
Initialize Jacobian structure (Euler). MG level: 1.
Initialize Jacobian structure (Euler). MG level: 2.

------------------- Numerics Preprocessing ( Zone 0 ) -------------------

----------------- Integration Preprocessing ( Zone 0 ) ------------------

------------------- Iteration Preprocessing ( Zone 0 ) ------------------
Euler/Navier-Stokes/RANS fluid iteration.

------------------------------ Begin Solver -----------------------------

Simulation Run using the Single-zone Driver
+----------------------------------------------------------------+
|  Inner_Iter|    rms[Rho]|   rms[RhoE]|          CL|          CD|
+----------------------------------------------------------------+
|           0|   -4.318885|   -3.772867|   -0.059975|    0.951342|
|           1|   -4.442206|   -3.889195|    0.112202|   -0.061814|
|           2|   -4.554584|   -4.004885|    0.033450|   -0.170942|
|           3|   -4.543231|   -3.987236|   -0.053359|    0.003592|
|           4|   -4.471988|   -3.923256|   -0.046742|    0.117838|
|           5|   -4.577498|   -4.027943|    0.032344|    0.056686|
|           6|   -4.560613|   -4.009872|    0.047837|   -0.046414|
|           7|   -4.677472|   -4.129883|   -0.016599|   -0.034816|
|           8|   -4.746645|   -4.195496|   -0.036883|    0.041280|
|           9|   -4.818382|   -4.270938|    0.008909|    0.039313|
|          10|   -5.032199|   -4.479879|    0.030416|   -0.020765|
|          11|   -4.986622|   -4.437683|    0.001681|   -0.025960|
|          12|   -5.225716|   -4.677507|   -0.020154|    0.016513|
|          13|   -5.199292|   -4.647906|   -0.006284|    0.023589|
|          14|   -5.311125|   -4.764386|    0.012591|   -0.008395|
|          15|   -5.457689|   -4.904636|    0.008293|   -0.018275|
|          16|   -5.442923|   -4.895094|   -0.006352|    0.004671|
|          17|   -5.681881|   -5.132016|   -0.007658|    0.015607|
|          18|   -5.639499|   -5.089493|    0.002116|   -0.000045|
|          19|   -5.786701|   -5.241495|    0.005802|   -0.010853|
|          20|   -5.803597|   -5.255283|    0.000433|   -0.001451|
|          21|   -5.847746|   -5.303257|   -0.003114|    0.007687|
|          22|   -5.943707|   -5.394132|   -0.000208|    0.002331|
|          23|   -5.857608|   -5.312601|    0.002528|   -0.004508|
|          24|   -6.025214|   -5.478343|    0.001234|   -0.001772|
|          25|   -5.914391|   -5.367931|   -0.000419|    0.002971|
|          26|   -6.048271|   -5.504603|    0.000175|    0.001629|
|          27|   -6.036582|   -5.490278|    0.001152|   -0.001701|
|          28|   -6.058161|   -5.515265|    0.000813|   -0.001166|
|          29|   -6.171677|   -5.631123|    0.000199|    0.001135|
|          30|   -6.135133|   -5.595119|    0.000285|    0.000966|
|          31|   -6.255300|   -5.717342|    0.000647|   -0.000764|
|          32|   -6.254367|   -5.712343|    0.000617|   -0.000986|
|          33|   -6.290472|   -5.753859|    0.000396|    0.000231|
|          34|   -6.346535|   -5.815071|    0.000416|    0.000713|
|          35|   -6.353971|   -5.821060|    0.000553|   -0.000071|
|          36|   -6.392169|   -5.857751|    0.000609|   -0.000713|
|          37|   -6.405559|   -5.870478|    0.000618|   -0.000414|
|          38|   -6.421235|   -5.888241|    0.000665|    0.000216|
|          39|   -6.443292|   -5.911384|    0.000767|    0.000282|
|          40|   -6.457364|   -5.925086|    0.000795|   -0.000158|
|          41|   -6.475094|   -5.942679|    0.000749|   -0.000393|
|          42|   -6.486904|   -5.954448|    0.000753|   -0.000177|
|          43|   -6.504388|   -5.972156|    0.000844|    0.000073|
|          44|   -6.529966|   -5.997732|    0.000915|    0.000030|
|          45|   -6.545394|   -6.012726|    0.000875|   -0.000164|
|          46|   -6.566343|   -6.033957|    0.000776|   -0.000217|
|          47|   -6.589107|   -6.056772|    0.000741|   -0.000108|
|          48|   -6.606599|   -6.073922|    0.000794|   -0.000040|
|          49|   -6.628300|   -6.096290|    0.000838|   -0.000099|
|          50|   -6.644976|   -6.113491|    0.000808|   -0.000179|
|          51|   -6.660495|   -6.128941|    0.000741|   -0.000177|
|          52|   -6.682263|   -6.150590|    0.000710|   -0.000122|
|          53|   -6.703137|   -6.171089|    0.000741|   -0.000101|
|          54|   -6.721827|   -6.189692|    0.000787|   -0.000139|
|          55|   -6.740048|   -6.207983|    0.000801|   -0.000179|
|          56|   -6.758397|   -6.226044|    0.000785|   -0.000172|
|          57|   -6.779150|   -6.246267|    0.000780|   -0.000138|
|          58|   -6.801185|   -6.267677|    0.000805|   -0.000123|
|          59|   -6.822314|   -6.288159|    0.000841|   -0.000142|
|          60|   -6.842811|   -6.308009|    0.000862|   -0.000163|
|          61|   -6.863510|   -6.328043|    0.000865|   -0.000160|
|          62|   -6.884683|   -6.348557|    0.000865|   -0.000143|
|          63|   -6.906364|   -6.369569|    0.000874|   -0.000134|
|          64|   -6.928561|   -6.391096|    0.000888|   -0.000142|
|          65|   -6.951493|   -6.413507|    0.000895|   -0.000153|
|          66|   -6.974698|   -6.436486|    0.000892|   -0.000153|
|          67|   -6.997407|   -6.459258|    0.000887|   -0.000148|
|          68|   -7.019898|   -6.482014|    0.000887|   -0.000146|
|          69|   -7.042198|   -6.504781|    0.000891|   -0.000151|
|          70|   -7.063908|   -6.527313|    0.000894|   -0.000156|
|          71|   -7.085117|   -6.549803|    0.000894|   -0.000157|
|          72|   -7.106004|   -6.572288|    0.000895|   -0.000156|
|          73|   -7.126849|   -6.594761|    0.000900|   -0.000157|
|          74|   -7.148013|   -6.617432|    0.000908|   -0.000160|
|          75|   -7.169560|   -6.640462|    0.000919|   -0.000163|
|          76|   -7.191628|   -6.664197|    0.000928|   -0.000163|
|          77|   -7.214390|   -6.688910|    0.000938|   -0.000162|
|          78|   -7.237472|   -6.714148|    0.000948|   -0.000163|
|          79|   -7.260210|   -6.739149|    0.000959|   -0.000165|
|          80|   -7.282281|   -6.763618|    0.000969|   -0.000166|
|          81|   -7.303774|   -6.787757|    0.000979|   -0.000166|
|          82|   -7.324883|   -6.811820|    0.000986|   -0.000165|
|          83|   -7.345754|   -6.835927|    0.000992|   -0.000165|
|          84|   -7.366571|   -6.860246|    0.000996|   -0.000166|
|          85|   -7.387566|   -6.885029|    0.000998|   -0.000167|
|          86|   -7.408901|   -6.910431|    0.000999|   -0.000167|
|          87|   -7.430626|   -6.936454|    0.000998|   -0.000167|
|          88|   -7.452637|   -6.962943|    0.000996|   -0.000167|
|          89|   -7.474612|   -6.989501|    0.000993|   -0.000167|
|          90|   -7.496130|   -7.015550|    0.000989|   -0.000168|
|          91|   -7.516855|   -7.040539|    0.000984|   -0.000169|
|          92|   -7.536649|   -7.064147|    0.000979|   -0.000169|
|          93|   -7.555574|   -7.086397|    0.000974|   -0.000170|
|          94|   -7.573844|   -7.107610|    0.000969|   -0.000171|
|          95|   -7.591768|   -7.128275|    0.000964|   -0.000171|
|          96|   -7.609679|   -7.148922|    0.000958|   -0.000172|
|          97|   -7.627801|   -7.169927|    0.000953|   -0.000173|
|          98|   -7.646148|   -7.191392|    0.000947|   -0.000174|
|          99|   -7.664578|   -7.213188|    0.000942|   -0.000174|
|         100|   -7.682924|   -7.235094|    0.000936|   -0.000175|
|         101|   -7.701056|   -7.256886|    0.000929|   -0.000176|
|         102|   -7.718877|   -7.278362|    0.000922|   -0.000176|
|         103|   -7.736337|   -7.299398|    0.000915|   -0.000177|
|         104|   -7.753485|   -7.320048|    0.000907|   -0.000178|
|         105|   -7.770475|   -7.340557|    0.000899|   -0.000178|
|         106|   -7.787491|   -7.361245|    0.000890|   -0.000179|
|         107|   -7.804653|   -7.382369|    0.000881|   -0.000179|
|         108|   -7.821965|   -7.404016|    0.000871|   -0.000179|
|         109|   -7.839300|   -7.426048|    0.000861|   -0.000180|
|         110|   -7.856428|   -7.448105|    0.000851|   -0.000180|
|         111|   -7.873084|   -7.469694|    0.000841|   -0.000180|
|         112|   -7.889048|   -7.490335|    0.000830|   -0.000180|
|         113|   -7.904208|   -7.509711|    0.000820|   -0.000181|
|         114|   -7.918587|   -7.527766|    0.000810|   -0.000181|
|         115|   -7.932339|   -7.544722|    0.000801|   -0.000181|
|         116|   -7.945689|   -7.560997|    0.000791|   -0.000181|
|         117|   -7.958864|   -7.577064|    0.000782|   -0.000182|
|         118|   -7.972026|   -7.593313|    0.000774|   -0.000182|
|         119|   -7.985241|   -7.609961|    0.000766|   -0.000182|
|         120|   -7.998482|   -7.627031|    0.000758|   -0.000183|
|         121|   -8.011653|   -7.644375|    0.000750|   -0.000183|
|         122|   -8.024618|   -7.661731|    0.000743|   -0.000183|
|         123|   -8.037252|   -7.678818|    0.000736|   -0.000184|
|         124|   -8.049480|   -7.695434|    0.000729|   -0.000184|
|         125|   -8.061294|   -7.711514|    0.000722|   -0.000184|
|         126|   -8.072745|   -7.727132|    0.000715|   -0.000185|
|         127|   -8.083912|   -7.742440|    0.000709|   -0.000185|
|         128|   -8.094867|   -7.757598|    0.000702|   -0.000185|
|         129|   -8.105654|   -7.772700|    0.000696|   -0.000186|
|         130|   -8.116273|   -7.787736|    0.000689|   -0.000186|
|         131|   -8.126686|   -7.802582|    0.000683|   -0.000186|
|         132|   -8.136833|   -7.817038|    0.000676|   -0.000186|
|         133|   -8.146660|   -7.830880|    0.000670|   -0.000187|
|         134|   -8.156134|   -7.843928|    0.000663|   -0.000187|
|         135|   -8.165261|   -7.856103|    0.000657|   -0.000187|
|         136|   -8.174089|   -7.867441|    0.000651|   -0.000187|
|         137|   -8.182691|   -7.878083|    0.000645|   -0.000187|
|         138|   -8.191152|   -7.888227|    0.000639|   -0.000187|
|         139|   -8.199546|   -7.898074|    0.000633|   -0.000187|
|         140|   -8.207928|   -7.907785|    0.000628|   -0.000188|
|         141|   -8.216322|   -7.917456|    0.000622|   -0.000188|
|         142|   -8.224728|   -7.927116|    0.000617|   -0.000188|
|         143|   -8.233124|   -7.936738|    0.000612|   -0.000188|
|         144|   -8.241482|   -7.946271|    0.000607|   -0.000188|
|         145|   -8.249775|   -7.955658|    0.000602|   -0.000188|
|         146|   -8.257984|   -7.964861|    0.000597|   -0.000188|
|         147|   -8.266103|   -7.973866|    0.000592|   -0.000188|
|         148|   -8.274137|   -7.982678|    0.000587|   -0.000188|
|         149|   -8.282094|   -7.991312|    0.000582|   -0.000188|
|         150|   -8.289986|   -7.999779|    0.000577|   -0.000189|
|         151|   -8.297818|   -8.008076|    0.000573|   -0.000189|
|         152|   -8.305588|   -8.016181|    0.000568|   -0.000189|
|         153|   -8.313289|   -8.024063|    0.000563|   -0.000189|
|         154|   -8.320911|   -8.031692|    0.000559|   -0.000189|
|         155|   -8.328446|   -8.039048|    0.000554|   -0.000189|
|         156|   -8.335888|   -8.046130|    0.000550|   -0.000189|
|         157|   -8.343239|   -8.052964|    0.000545|   -0.000189|
|         158|   -8.350503|   -8.059596|    0.000541|   -0.000189|
|         159|   -8.357694|   -8.066084|    0.000537|   -0.000189|
|         160|   -8.364822|   -8.072487|    0.000533|   -0.000189|
|         161|   -8.371900|   -8.078856|    0.000529|   -0.000189|
|         162|   -8.378935|   -8.085228|    0.000525|   -0.000189|
|         163|   -8.385932|   -8.091619|    0.000521|   -0.000189|
|         164|   -8.392887|   -8.098031|    0.000517|   -0.000189|
|         165|   -8.399796|   -8.104452|    0.000514|   -0.000189|
|         166|   -8.406653|   -8.110866|    0.000510|   -0.000189|
|         167|   -8.413451|   -8.117258|    0.000507|   -0.000189|
|         168|   -8.420185|   -8.123615|    0.000504|   -0.000189|
|         169|   -8.426851|   -8.129934|    0.000500|   -0.000189|
|         170|   -8.433449|   -8.136215|    0.000497|   -0.000189|
|         171|   -8.439981|   -8.142464|    0.000494|   -0.000189|
|         172|   -8.446447|   -8.148685|    0.000491|   -0.000189|
|         173|   -8.452850|   -8.154885|    0.000488|   -0.000189|
|         174|   -8.459192|   -8.161065|    0.000485|   -0.000189|
|         175|   -8.465471|   -8.167224|    0.000482|   -0.000189|
|         176|   -8.471689|   -8.173360|    0.000479|   -0.000189|
|         177|   -8.477845|   -8.179472|    0.000477|   -0.000189|
|         178|   -8.483938|   -8.185558|    0.000474|   -0.000189|
|         179|   -8.489971|   -8.191622|    0.000471|   -0.000189|
|         180|   -8.495944|   -8.197669|    0.000469|   -0.000189|
|         181|   -8.501859|   -8.203708|    0.000466|   -0.000189|
|         182|   -8.507721|   -8.209748|    0.000464|   -0.000189|
|         183|   -8.513533|   -8.215800|    0.000461|   -0.000189|
|         184|   -8.519297|   -8.221872|    0.000459|   -0.000189|
|         185|   -8.525017|   -8.227970|    0.000457|   -0.000189|
|         186|   -8.530695|   -8.234098|    0.000455|   -0.000189|
|         187|   -8.536332|   -8.240256|    0.000453|   -0.000188|
|         188|   -8.541929|   -8.246444|    0.000451|   -0.000188|
|         189|   -8.547488|   -8.252660|    0.000449|   -0.000188|
|         190|   -8.553008|   -8.258901|    0.000448|   -0.000188|
|         191|   -8.558492|   -8.265165|    0.000446|   -0.000188|
|         192|   -8.563940|   -8.271451|    0.000444|   -0.000188|
|         193|   -8.569355|   -8.277760|    0.000443|   -0.000188|
|         194|   -8.574739|   -8.284091|    0.000441|   -0.000188|
|         195|   -8.580094|   -8.290446|    0.000440|   -0.000188|
|         196|   -8.585424|   -8.296825|    0.000438|   -0.000188|
|         197|   -8.590729|   -8.303229|    0.000437|   -0.000188|
|         198|   -8.596014|   -8.309659|    0.000436|   -0.000188|
|         199|   -8.601279|   -8.316117|    0.000435|   -0.000188|
|         200|   -8.606528|   -8.322603|    0.000434|   -0.000188|
|         201|   -8.611764|   -8.329118|    0.000433|   -0.000188|
|         202|   -8.616988|   -8.335665|    0.000432|   -0.000188|
|         203|   -8.622203|   -8.342246|    0.000431|   -0.000188|
|         204|   -8.627411|   -8.348861|    0.000430|   -0.000188|
|         205|   -8.632616|   -8.355515|    0.000429|   -0.000187|
|         206|   -8.637820|   -8.362208|    0.000428|   -0.000187|
|         207|   -8.643026|   -8.368942|    0.000427|   -0.000187|
|         208|   -8.648235|   -8.375718|    0.000427|   -0.000187|
|         209|   -8.653451|   -8.382538|    0.000426|   -0.000187|
|         210|   -8.658674|   -8.389400|    0.000426|   -0.000187|
|         211|   -8.663908|   -8.396304|    0.000425|   -0.000187|
|         212|   -8.669155|   -8.403251|    0.000425|   -0.000187|
|         213|   -8.674415|   -8.410239|    0.000424|   -0.000187|
|         214|   -8.679691|   -8.417268|    0.000424|   -0.000187|
|         215|   -8.684986|   -8.424337|    0.000424|   -0.000187|
|         216|   -8.690300|   -8.431447|    0.000423|   -0.000187|
|         217|   -8.695636|   -8.438596|    0.000423|   -0.000187|
|         218|   -8.700996|   -8.445786|    0.000423|   -0.000187|
|         219|   -8.706381|   -8.453017|    0.000423|   -0.000187|
|         220|   -8.711794|   -8.460288|    0.000423|   -0.000186|
|         221|   -8.717236|   -8.467603|    0.000423|   -0.000186|
|         222|   -8.722709|   -8.474959|    0.000423|   -0.000186|
|         223|   -8.728215|   -8.482357|    0.000423|   -0.000186|
|         224|   -8.733755|   -8.489800|    0.000423|   -0.000186|
|         225|   -8.739331|   -8.497287|    0.000423|   -0.000186|
|         226|   -8.744944|   -8.504819|    0.000423|   -0.000186|
|         227|   -8.750595|   -8.512396|    0.000423|   -0.000186|
|         228|   -8.756287|   -8.520018|    0.000423|   -0.000186|
|         229|   -8.762018|   -8.527686|    0.000423|   -0.000186|
|         230|   -8.767791|   -8.535398|    0.000424|   -0.000186|
|         231|   -8.773607|   -8.543155|    0.000424|   -0.000186|
|         232|   -8.779465|   -8.550956|    0.000424|   -0.000186|
|         233|   -8.785367|   -8.558802|    0.000425|   -0.000186|
|         234|   -8.791314|   -8.566691|    0.000425|   -0.000186|
|         235|   -8.797305|   -8.574623|    0.000425|   -0.000186|
|         236|   -8.803341|   -8.582599|    0.000426|   -0.000186|
|         237|   -8.809424|   -8.590619|    0.000426|   -0.000186|
|         238|   -8.815553|   -8.598681|    0.000427|   -0.000185|
|         239|   -8.821728|   -8.606786|    0.000427|   -0.000185|
|         240|   -8.827950|   -8.614934|    0.000428|   -0.000185|
|         241|   -8.834220|   -8.623126|    0.000428|   -0.000185|
|         242|   -8.840538|   -8.631360|    0.000429|   -0.000185|
|         243|   -8.846904|   -8.639638|    0.000429|   -0.000185|
|         244|   -8.853319|   -8.647960|    0.000430|   -0.000185|
|         245|   -8.859783|   -8.656325|    0.000431|   -0.000185|
|         246|   -8.866297|   -8.664734|    0.000431|   -0.000185|
|         247|   -8.872860|   -8.673186|    0.000432|   -0.000185|
|         248|   -8.879473|   -8.681682|    0.000433|   -0.000185|
|         249|   -8.886136|   -8.690221|    0.000433|   -0.000185|
|         250|   -8.892849|   -8.698803|    0.000434|   -0.000185|
+-----------------------------------------------------------------------+
|        File Writing Summary       |              Filename             |
+-----------------------------------------------------------------------+
|SU2 restart                        |restart_flow.dat                   |
|Paraview                           |flow.vtu                           |
|Paraview surface                   |surface_flow.vtu                   |
|CSV file                           |surface_flow.csv                   |
+-----------------------------------------------------------------------+
+----------------------------------------------------------------+
|  Inner_Iter|    rms[Rho]|   rms[RhoE]|          CL|          CD|
+----------------------------------------------------------------+
|         251|   -8.899614|   -8.707428|    0.000435|   -0.000185|
|         252|   -8.906428|   -8.716095|    0.000435|   -0.000185|
|         253|   -8.913294|   -8.724805|    0.000436|   -0.000185|
|         254|   -8.920211|   -8.733556|    0.000437|   -0.000185|
|         255|   -8.927178|   -8.742348|    0.000438|   -0.000185|
|         256|   -8.934197|   -8.751182|    0.000438|   -0.000185|
|         257|   -8.941267|   -8.760056|    0.000439|   -0.000185|
|         258|   -8.948388|   -8.768971|    0.000440|   -0.000185|
|         259|   -8.955560|   -8.777927|    0.000441|   -0.000184|
|         260|   -8.962783|   -8.786922|    0.000442|   -0.000184|
|         261|   -8.970057|   -8.795958|    0.000442|   -0.000184|
|         262|   -8.977383|   -8.805034|    0.000443|   -0.000184|
|         263|   -8.984760|   -8.814151|    0.000444|   -0.000184|
|         264|   -8.992188|   -8.823307|    0.000445|   -0.000184|
|         265|   -8.999667|   -8.832504|    0.000446|   -0.000184|
|         266|   -9.007197|   -8.841740|    0.000446|   -0.000184|
|         267|   -9.014779|   -8.851017|    0.000447|   -0.000184|
|         268|   -9.022412|   -8.860333|    0.000448|   -0.000184|
|         269|   -9.030096|   -8.869688|    0.000449|   -0.000184|
|         270|   -9.037831|   -8.879083|    0.000450|   -0.000184|
|         271|   -9.045617|   -8.888517|    0.000451|   -0.000184|
|         272|   -9.053454|   -8.897989|    0.000452|   -0.000184|
|         273|   -9.061342|   -8.907499|    0.000452|   -0.000184|
|         274|   -9.069281|   -8.917047|    0.000453|   -0.000184|
|         275|   -9.077271|   -8.926633|    0.000454|   -0.000184|
|         276|   -9.085312|   -8.936256|    0.000455|   -0.000184|
|         277|   -9.093403|   -8.945916|    0.000456|   -0.000184|
|         278|   -9.101544|   -8.955612|    0.000457|   -0.000184|
|         279|   -9.109737|   -8.965344|    0.000458|   -0.000184|
|         280|   -9.117979|   -8.975113|    0.000458|   -0.000184|
|         281|   -9.126272|   -8.984918|    0.000459|   -0.000184|
|         282|   -9.134615|   -8.994759|    0.000460|   -0.000184|
|         283|   -9.143008|   -9.004635|    0.000461|   -0.000184|
|         284|   -9.151452|   -9.014548|    0.000462|   -0.000184|
|         285|   -9.159945|   -9.024496|    0.000463|   -0.000184|
|         286|   -9.168488|   -9.034480|    0.000463|   -0.000184|
|         287|   -9.177081|   -9.044499|    0.000464|   -0.000184|
|         288|   -9.185724|   -9.054554|    0.000465|   -0.000184|
|         289|   -9.194416|   -9.064644|    0.000466|   -0.000184|
|         290|   -9.203158|   -9.074769|    0.000467|   -0.000184|
|         291|   -9.211949|   -9.084929|    0.000468|   -0.000183|
|         292|   -9.220790|   -9.095123|    0.000468|   -0.000183|
|         293|   -9.229680|   -9.105352|    0.000469|   -0.000183|
|         294|   -9.238619|   -9.115614|    0.000470|   -0.000183|
|         295|   -9.247608|   -9.125909|    0.000471|   -0.000183|
|         296|   -9.256645|   -9.136238|    0.000472|   -0.000183|
|         297|   -9.265731|   -9.146598|    0.000472|   -0.000183|
|         298|   -9.274866|   -9.156992|    0.000473|   -0.000183|
|         299|   -9.284050|   -9.167416|    0.000474|   -0.000183|
|         300|   -9.293282|   -9.177873|    0.000475|   -0.000183|
|         301|   -9.302563|   -9.188360|    0.000476|   -0.000183|
|         302|   -9.311892|   -9.198879|    0.000476|   -0.000183|
|         303|   -9.321270|   -9.209428|    0.000477|   -0.000183|
|         304|   -9.330696|   -9.220008|    0.000478|   -0.000183|
|         305|   -9.340170|   -9.230618|    0.000479|   -0.000183|
|         306|   -9.349692|   -9.241258|    0.000479|   -0.000183|
|         307|   -9.359262|   -9.251929|    0.000480|   -0.000183|
|         308|   -9.368880|   -9.262629|    0.000481|   -0.000183|
|         309|   -9.378546|   -9.273359|    0.000482|   -0.000183|
|         310|   -9.388260|   -9.284118|    0.000482|   -0.000183|
|         311|   -9.398021|   -9.294906|    0.000483|   -0.000183|
|         312|   -9.407830|   -9.305723|    0.000484|   -0.000183|
|         313|   -9.417687|   -9.316569|    0.000484|   -0.000183|
|         314|   -9.427591|   -9.327443|    0.000485|   -0.000183|
|         315|   -9.437543|   -9.338344|    0.000486|   -0.000183|
|         316|   -9.447541|   -9.349273|    0.000487|   -0.000183|
|         317|   -9.457587|   -9.360229|    0.000487|   -0.000183|
|         318|   -9.467681|   -9.371211|    0.000488|   -0.000183|
|         319|   -9.477821|   -9.382220|    0.000488|   -0.000183|
|         320|   -9.488008|   -9.393254|    0.000489|   -0.000183|
|         321|   -9.498242|   -9.404313|    0.000490|   -0.000183|
|         322|   -9.508523|   -9.415396|    0.000490|   -0.000183|
|         323|   -9.518850|   -9.426505|    0.000491|   -0.000183|
|         324|   -9.529225|   -9.437637|    0.000492|   -0.000183|
|         325|   -9.539645|   -9.448793|    0.000492|   -0.000183|
|         326|   -9.550113|   -9.459972|    0.000493|   -0.000183|
|         327|   -9.560626|   -9.471174|    0.000493|   -0.000183|
|         328|   -9.571186|   -9.482398|    0.000494|   -0.000183|
|         329|   -9.581792|   -9.493644|    0.000495|   -0.000183|
|         330|   -9.592445|   -9.504913|    0.000495|   -0.000183|
|         331|   -9.603143|   -9.516202|    0.000496|   -0.000183|
|         332|   -9.613887|   -9.527513|    0.000496|   -0.000183|
|         333|   -9.624677|   -9.538843|    0.000497|   -0.000183|
|         334|   -9.635513|   -9.550194|    0.000497|   -0.000183|
|         335|   -9.646394|   -9.561565|    0.000498|   -0.000183|
|         336|   -9.657321|   -9.572954|    0.000498|   -0.000183|
|         337|   -9.668293|   -9.584362|    0.000499|   -0.000183|
|         338|   -9.679310|   -9.595788|    0.000500|   -0.000183|
|         339|   -9.690373|   -9.607232|    0.000500|   -0.000183|
|         340|   -9.701480|   -9.618692|    0.000501|   -0.000183|
|         341|   -9.712633|   -9.630169|    0.000501|   -0.000183|
|         342|   -9.723830|   -9.641662|    0.000501|   -0.000183|
|         343|   -9.735072|   -9.653170|    0.000502|   -0.000183|
|         344|   -9.746358|   -9.664693|    0.000502|   -0.000183|
|         345|   -9.757688|   -9.676230|    0.000503|   -0.000183|
|         346|   -9.769063|   -9.687781|    0.000503|   -0.000183|
|         347|   -9.780482|   -9.699346|    0.000504|   -0.000183|
|         348|   -9.791944|   -9.710922|    0.000504|   -0.000183|
|         349|   -9.803450|   -9.722511|    0.000505|   -0.000183|
|         350|   -9.815000|   -9.734112|    0.000505|   -0.000183|
|         351|   -9.826593|   -9.745724|    0.000505|   -0.000183|
|         352|   -9.838229|   -9.757346|    0.000506|   -0.000183|
|         353|   -9.849909|   -9.768978|    0.000506|   -0.000183|
|         354|   -9.861631|   -9.780619|    0.000507|   -0.000183|
|         355|   -9.873395|   -9.792269|    0.000507|   -0.000183|
|         356|   -9.885202|   -9.803927|    0.000507|   -0.000183|
|         357|   -9.897052|   -9.815593|    0.000508|   -0.000183|
|         358|   -9.908943|   -9.827266|    0.000508|   -0.000183|
|         359|   -9.920876|   -9.838945|    0.000509|   -0.000183|
|         360|   -9.932851|   -9.850630|    0.000509|   -0.000183|
|         361|   -9.944867|   -9.862320|    0.000509|   -0.000183|
|         362|   -9.956924|   -9.874015|    0.000510|   -0.000183|
|         363|   -9.969022|   -9.885714|    0.000510|   -0.000183|
|         364|   -9.981160|   -9.897416|    0.000510|   -0.000183|
|         365|   -9.993339|   -9.909122|    0.000511|   -0.000183|
|         366|  -10.005559|   -9.920830|    0.000511|   -0.000183|
|         367|  -10.017818|   -9.932539|    0.000511|   -0.000183|
|         368|  -10.030117|   -9.944251|    0.000512|   -0.000183|
|         369|  -10.042456|   -9.955963|    0.000512|   -0.000183|
|         370|  -10.054833|   -9.967675|    0.000512|   -0.000183|
|         371|  -10.067250|   -9.979387|    0.000513|   -0.000183|
|         372|  -10.079705|   -9.991099|    0.000513|   -0.000183|
|         373|  -10.092199|  -10.002810|    0.000513|   -0.000183|
|         374|  -10.104730|  -10.014519|    0.000513|   -0.000183|
|         375|  -10.117300|  -10.026226|    0.000514|   -0.000183|
|         376|  -10.129907|  -10.037930|    0.000514|   -0.000183|
|         377|  -10.142552|  -10.049631|    0.000514|   -0.000183|
|         378|  -10.155233|  -10.061329|    0.000514|   -0.000183|
|         379|  -10.167951|  -10.073023|    0.000515|   -0.000183|
|         380|  -10.180706|  -10.084712|    0.000515|   -0.000183|
|         381|  -10.193496|  -10.096396|    0.000515|   -0.000183|
|         382|  -10.206323|  -10.108075|    0.000515|   -0.000183|
|         383|  -10.219184|  -10.119749|    0.000516|   -0.000183|
|         384|  -10.232081|  -10.131416|    0.000516|   -0.000183|
|         385|  -10.245013|  -10.143077|    0.000516|   -0.000183|
|         386|  -10.257979|  -10.154731|    0.000516|   -0.000183|
|         387|  -10.270980|  -10.166378|    0.000517|   -0.000183|
|         388|  -10.284014|  -10.178018|    0.000517|   -0.000183|
|         389|  -10.297082|  -10.189649|    0.000517|   -0.000183|
|         390|  -10.310184|  -10.201273|    0.000517|   -0.000183|
|         391|  -10.323318|  -10.212889|    0.000517|   -0.000183|
|         392|  -10.336484|  -10.224496|    0.000518|   -0.000183|
|         393|  -10.349683|  -10.236094|    0.000518|   -0.000183|
|         394|  -10.362914|  -10.247684|    0.000518|   -0.000183|
|         395|  -10.376176|  -10.259264|    0.000518|   -0.000183|
|         396|  -10.389470|  -10.270835|    0.000518|   -0.000183|
|         397|  -10.402794|  -10.282397|    0.000518|   -0.000183|
|         398|  -10.416149|  -10.293950|    0.000519|   -0.000183|
|         399|  -10.429534|  -10.305492|    0.000519|   -0.000183|
|         400|  -10.442949|  -10.317025|    0.000519|   -0.000183|
|         401|  -10.456393|  -10.328549|    0.000519|   -0.000183|
|         402|  -10.469866|  -10.340062|    0.000519|   -0.000183|
|         403|  -10.483368|  -10.351565|    0.000519|   -0.000183|
|         404|  -10.496899|  -10.363059|    0.000520|   -0.000183|
|         405|  -10.510457|  -10.374542|    0.000520|   -0.000183|
|         406|  -10.524043|  -10.386016|    0.000520|   -0.000183|
|         407|  -10.537656|  -10.397479|    0.000520|   -0.000183|
|         408|  -10.551295|  -10.408932|    0.000520|   -0.000183|
|         409|  -10.564962|  -10.420376|    0.000520|   -0.000183|
|         410|  -10.578654|  -10.431810|    0.000520|   -0.000183|
|         411|  -10.592372|  -10.443233|    0.000521|   -0.000183|
|         412|  -10.606115|  -10.454647|    0.000521|   -0.000183|
|         413|  -10.619883|  -10.466052|    0.000521|   -0.000183|
|         414|  -10.633675|  -10.477446|    0.000521|   -0.000183|
|         415|  -10.647492|  -10.488832|    0.000521|   -0.000183|
|         416|  -10.661332|  -10.500207|    0.000521|   -0.000183|
|         417|  -10.675195|  -10.511573|    0.000521|   -0.000183|
|         418|  -10.689082|  -10.522931|    0.000521|   -0.000183|
|         419|  -10.702990|  -10.534280|    0.000521|   -0.000183|
|         420|  -10.716921|  -10.545620|    0.000522|   -0.000183|
|         421|  -10.730873|  -10.556952|    0.000522|   -0.000183|
|         422|  -10.744847|  -10.568275|    0.000522|   -0.000183|
|         423|  -10.758841|  -10.579590|    0.000522|   -0.000183|
|         424|  -10.772856|  -10.590898|    0.000522|   -0.000183|
|         425|  -10.786890|  -10.602198|    0.000522|   -0.000183|
|         426|  -10.800944|  -10.613490|    0.000522|   -0.000183|
|         427|  -10.815017|  -10.624774|    0.000522|   -0.000183|
|         428|  -10.829109|  -10.636052|    0.000522|   -0.000183|
|         429|  -10.843219|  -10.647323|    0.000522|   -0.000183|
|         430|  -10.857346|  -10.658588|    0.000522|   -0.000183|
|         431|  -10.871491|  -10.669846|    0.000523|   -0.000183|
|         432|  -10.885652|  -10.681097|    0.000523|   -0.000183|
|         433|  -10.899830|  -10.692343|    0.000523|   -0.000183|
|         434|  -10.914024|  -10.703583|    0.000523|   -0.000183|
|         435|  -10.928233|  -10.714818|    0.000523|   -0.000183|
|         436|  -10.942458|  -10.726047|    0.000523|   -0.000183|
|         437|  -10.956696|  -10.737272|    0.000523|   -0.000183|
|         438|  -10.970949|  -10.748490|    0.000523|   -0.000183|
|         439|  -10.985215|  -10.759706|    0.000523|   -0.000183|
|         440|  -10.999495|  -10.770916|    0.000523|   -0.000183|
|         441|  -11.013786|  -10.782120|    0.000523|   -0.000183|
|         442|  -11.028090|  -10.793323|    0.000523|   -0.000183|
|         443|  -11.042406|  -10.804520|    0.000523|   -0.000183|
|         444|  -11.056732|  -10.815714|    0.000523|   -0.000183|
|         445|  -11.071070|  -10.826905|    0.000523|   -0.000183|
|         446|  -11.085417|  -10.838091|    0.000524|   -0.000183|
|         447|  -11.099774|  -10.849275|    0.000524|   -0.000183|
|         448|  -11.114140|  -10.860455|    0.000524|   -0.000183|
|         449|  -11.128514|  -10.871632|    0.000524|   -0.000183|
|         450|  -11.142897|  -10.882807|    0.000524|   -0.000183|
|         451|  -11.157286|  -10.893978|    0.000524|   -0.000183|
|         452|  -11.171683|  -10.905148|    0.000524|   -0.000183|
|         453|  -11.186086|  -10.916314|    0.000524|   -0.000183|
|         454|  -11.200495|  -10.927478|    0.000524|   -0.000183|
|         455|  -11.214909|  -10.938638|    0.000524|   -0.000183|
|         456|  -11.229328|  -10.949799|    0.000524|   -0.000183|
|         457|  -11.243751|  -10.960955|    0.000524|   -0.000183|
|         458|  -11.258177|  -10.972108|    0.000524|   -0.000183|
|         459|  -11.272607|  -10.983262|    0.000524|   -0.000183|
|         460|  -11.287037|  -10.994411|    0.000524|   -0.000183|
|         461|  -11.301470|  -11.005557|    0.000524|   -0.000183|
|         462|  -11.315905|  -11.016703|    0.000524|   -0.000183|
|         463|  -11.330339|  -11.027845|    0.000524|   -0.000183|
|         464|  -11.344773|  -11.038984|    0.000524|   -0.000183|
|         465|  -11.359206|  -11.050120|    0.000524|   -0.000183|
|         466|  -11.373637|  -11.061253|    0.000524|   -0.000183|
|         467|  -11.388066|  -11.072384|    0.000524|   -0.000183|
|         468|  -11.402492|  -11.083513|    0.000524|   -0.000183|
|         469|  -11.416915|  -11.094638|    0.000525|   -0.000183|
|         470|  -11.431332|  -11.105758|    0.000525|   -0.000183|
|         471|  -11.445745|  -11.116877|    0.000525|   -0.000183|
|         472|  -11.460152|  -11.127992|    0.000525|   -0.000183|
|         473|  -11.474552|  -11.139100|    0.000525|   -0.000183|
|         474|  -11.488945|  -11.150207|    0.000525|   -0.000183|
|         475|  -11.503328|  -11.161306|    0.000525|   -0.000183|
|         476|  -11.517703|  -11.172405|    0.000525|   -0.000183|
|         477|  -11.532067|  -11.183493|    0.000525|   -0.000183|
|         478|  -11.546421|  -11.194579|    0.000525|   -0.000183|
|         479|  -11.560763|  -11.205658|    0.000525|   -0.000183|
|         480|  -11.575093|  -11.216732|    0.000525|   -0.000183|
|         481|  -11.589409|  -11.227799|    0.000525|   -0.000183|
|         482|  -11.603710|  -11.238856|    0.000525|   -0.000183|
|         483|  -11.617996|  -11.249909|    0.000525|   -0.000183|
|         484|  -11.632265|  -11.260952|    0.000525|   -0.000183|
|         485|  -11.646517|  -11.271989|    0.000525|   -0.000183|
|         486|  -11.660749|  -11.283013|    0.000525|   -0.000183|
|         487|  -11.674964|  -11.294034|    0.000525|   -0.000183|
|         488|  -11.689158|  -11.305042|    0.000525|   -0.000183|
|         489|  -11.703328|  -11.316036|    0.000525|   -0.000183|
|         490|  -11.717477|  -11.327023|    0.000525|   -0.000183|
|         491|  -11.731601|  -11.337997|    0.000525|   -0.000183|
|         492|  -11.745702|  -11.348960|    0.000525|   -0.000183|
|         493|  -11.759774|  -11.359908|    0.000525|   -0.000183|
|         494|  -11.773820|  -11.370843|    0.000525|   -0.000183|
|         495|  -11.787837|  -11.381765|    0.000525|   -0.000183|
|         496|  -11.801823|  -11.392671|    0.000525|   -0.000183|
|         497|  -11.815778|  -11.403562|    0.000525|   -0.000183|
|         498|  -11.829700|  -11.414436|    0.000525|   -0.000183|
|         499|  -11.843590|  -11.425293|    0.000525|   -0.000183|
|         500|  -11.857444|  -11.436134|    0.000525|   -0.000183|
+-----------------------------------------------------------------------+
|        File Writing Summary       |              Filename             |
+-----------------------------------------------------------------------+
|SU2 restart                        |restart_flow.dat                   |
|Paraview                           |flow.vtu                           |
|Paraview surface                   |surface_flow.vtu                   |
|CSV file                           |surface_flow.csv                   |
+-----------------------------------------------------------------------+
+----------------------------------------------------------------+
|  Inner_Iter|    rms[Rho]|   rms[RhoE]|          CL|          CD|
+----------------------------------------------------------------+
|         501|  -11.871260|  -11.446956|    0.000525|   -0.000183|
|         502|  -11.885040|  -11.457759|    0.000525|   -0.000183|
|         503|  -11.898779|  -11.468540|    0.000525|   -0.000183|
|         504|  -11.912475|  -11.479298|    0.000525|   -0.000183|
|         505|  -11.926133|  -11.490040|    0.000525|   -0.000183|
|         506|  -11.939747|  -11.500761|    0.000525|   -0.000183|
|         507|  -11.953311|  -11.511450|    0.000525|   -0.000183|
|         508|  -11.966831|  -11.522122|    0.000525|   -0.000183|
|         509|  -11.980304|  -11.532768|    0.000525|   -0.000183|
|         510|  -11.993725|  -11.543387|    0.000525|   -0.000183|
|         511|  -12.007099|  -11.553983|    0.000525|   -0.000183|
|         512|  -12.020416|  -11.564549|    0.000525|   -0.000183|
|         513|  -12.033676|  -11.575081|    0.000525|   -0.000183|
|         514|  -12.046886|  -11.585593|    0.000525|   -0.000183|
|         515|  -12.060034|  -11.596068|    0.000525|   -0.000183|
|         516|  -12.073123|  -11.606516|    0.000525|   -0.000183|
|         517|  -12.086157|  -11.616934|    0.000525|   -0.000183|
|         518|  -12.099128|  -11.627322|    0.000525|   -0.000183|
|         519|  -12.112033|  -11.637674|    0.000525|   -0.000183|
|         520|  -12.124871|  -11.647987|    0.000525|   -0.000183|
|         521|  -12.137641|  -11.658267|    0.000525|   -0.000183|
|         522|  -12.150345|  -11.668513|    0.000525|   -0.000183|
|         523|  -12.162979|  -11.678722|    0.000525|   -0.000183|
|         524|  -12.175546|  -11.688897|    0.000525|   -0.000183|
|         525|  -12.188034|  -11.699026|    0.000526|   -0.000183|
|         526|  -12.200455|  -11.709125|    0.000526|   -0.000183|
|         527|  -12.212800|  -11.719187|    0.000526|   -0.000183|
|         528|  -12.225067|  -11.729203|    0.000526|   -0.000183|
|         529|  -12.237254|  -11.739179|    0.000526|   -0.000183|
|         530|  -12.249361|  -11.749104|    0.000526|   -0.000183|
|         531|  -12.261397|  -11.759002|    0.000526|   -0.000183|
|         532|  -12.273347|  -11.768855|    0.000526|   -0.000183|
|         533|  -12.285213|  -11.778659|    0.000526|   -0.000183|
|         534|  -12.297005|  -11.788428|    0.000526|   -0.000183|
|         535|  -12.308705|  -11.798150|    0.000526|   -0.000183|
|         536|  -12.320320|  -11.807824|    0.000526|   -0.000183|
|         537|  -12.331848|  -11.817449|    0.000526|   -0.000183|
|         538|  -12.343297|  -11.827036|    0.000526|   -0.000183|
|         539|  -12.354657|  -11.836581|    0.000526|   -0.000183|
|         540|  -12.365931|  -11.846076|    0.000526|   -0.000183|
|         541|  -12.377106|  -11.855515|    0.000526|   -0.000183|
|         542|  -12.388205|  -11.864914|    0.000526|   -0.000183|
|         543|  -12.399220|  -11.874280|    0.000526|   -0.000183|
|         544|  -12.410138|  -11.883584|    0.000526|   -0.000183|
|         545|  -12.420960|  -11.892837|    0.000526|   -0.000183|
|         546|  -12.431706|  -11.902057|    0.000526|   -0.000183|
|         547|  -12.442377|  -11.911240|    0.000526|   -0.000183|
|         548|  -12.452933|  -11.920349|    0.000526|   -0.000183|
|         549|  -12.463406|  -11.929418|    0.000526|   -0.000183|
|         550|  -12.473795|  -11.938445|    0.000526|   -0.000183|
|         551|  -12.484092|  -11.947419|    0.000526|   -0.000183|
|         552|  -12.494308|  -11.956355|    0.000526|   -0.000183|
|         553|  -12.504437|  -11.965245|    0.000526|   -0.000183|
|         554|  -12.514476|  -11.974079|    0.000526|   -0.000183|
|         555|  -12.524439|  -11.982879|    0.000526|   -0.000183|
|         556|  -12.534308|  -11.991626|    0.000526|   -0.000183|
|         557|  -12.544103|  -12.000336|    0.000526|   -0.000183|
|         558|  -12.553801|  -12.008988|    0.000526|   -0.000183|
|         559|  -12.563431|  -12.017606|    0.000526|   -0.000183|
|         560|  -12.572984|  -12.026185|    0.000526|   -0.000183|
|         561|  -12.582446|  -12.034707|    0.000526|   -0.000183|
|         562|  -12.591830|  -12.043197|    0.000526|   -0.000183|
|         563|  -12.601130|  -12.051628|    0.000526|   -0.000183|
|         564|  -12.610377|  -12.060045|    0.000526|   -0.000183|
|         565|  -12.619527|  -12.068393|    0.000526|   -0.000183|
|         566|  -12.628611|  -12.076709|    0.000526|   -0.000183|
|         567|  -12.637629|  -12.084998|    0.000526|   -0.000183|
|         568|  -12.646576|  -12.093237|    0.000526|   -0.000183|
|         569|  -12.655455|  -12.101439|    0.000526|   -0.000183|
|         570|  -12.664257|  -12.109602|    0.000526|   -0.000183|
|         571|  -12.673003|  -12.117729|    0.000526|   -0.000183|
|         572|  -12.681679|  -12.125818|    0.000526|   -0.000183|
|         573|  -12.690276|  -12.133855|    0.000526|   -0.000183|
|         574|  -12.698850|  -12.141896|    0.000526|   -0.000183|
|         575|  -12.707335|  -12.149874|    0.000526|   -0.000183|
|         576|  -12.715775|  -12.157833|    0.000526|   -0.000183|
|         577|  -12.724143|  -12.165739|    0.000526|   -0.000183|
|         578|  -12.732478|  -12.173640|    0.000526|   -0.000183|
|         579|  -12.740742|  -12.181489|    0.000526|   -0.000183|
|         580|  -12.748962|  -12.189321|    0.000526|   -0.000183|
|         581|  -12.757142|  -12.197125|    0.000526|   -0.000183|
|         582|  -12.765268|  -12.204899|    0.000526|   -0.000183|
|         583|  -12.773339|  -12.212644|    0.000526|   -0.000183|
|         584|  -12.781360|  -12.220355|    0.000526|   -0.000183|
|         585|  -12.789343|  -12.228041|    0.000526|   -0.000183|
|         586|  -12.797297|  -12.235721|    0.000526|   -0.000183|
|         587|  -12.805185|  -12.243351|    0.000526|   -0.000183|
|         588|  -12.813032|  -12.250949|    0.000526|   -0.000183|
|         589|  -12.820865|  -12.258554|    0.000526|   -0.000183|
|         590|  -12.828655|  -12.266131|    0.000526|   -0.000183|
|         591|  -12.836401|  -12.273683|    0.000526|   -0.000183|
|         592|  -12.844109|  -12.281206|    0.000526|   -0.000183|
|         593|  -12.851803|  -12.288723|    0.000526|   -0.000183|
|         594|  -12.859457|  -12.296223|    0.000526|   -0.000183|
|         595|  -12.867098|  -12.303713|    0.000526|   -0.000183|
|         596|  -12.874680|  -12.311155|    0.000526|   -0.000183|
|         597|  -12.882250|  -12.318600|    0.000526|   -0.000183|
|         598|  -12.889792|  -12.326032|    0.000526|   -0.000183|
|         599|  -12.897296|  -12.333436|    0.000526|   -0.000183|
|         600|  -12.904756|  -12.340806|    0.000526|   -0.000183|
|         601|  -12.912251|  -12.348206|    0.000526|   -0.000183|
|         602|  -12.919701|  -12.355564|    0.000526|   -0.000183|
|         603|  -12.927110|  -12.362915|    0.000526|   -0.000183|
|         604|  -12.934531|  -12.370281|    0.000526|   -0.000183|
|         605|  -12.941935|  -12.377627|    0.000526|   -0.000183|
|         606|  -12.949320|  -12.384963|    0.000526|   -0.000183|
|         607|  -12.956637|  -12.392240|    0.000526|   -0.000183|
|         608|  -12.964001|  -12.399570|    0.000526|   -0.000183|
|         609|  -12.971323|  -12.406869|    0.000526|   -0.000183|
|         610|  -12.978631|  -12.414149|    0.000526|   -0.000183|
|         611|  -12.985914|  -12.421426|    0.000526|   -0.000183|
|         612|  -12.993201|  -12.428700|    0.000526|   -0.000183|
|         613|  -13.000500|  -12.435992|    0.000526|   -0.000183|

----------------------------- Solver Exit -------------------------------
All convergence criteria satisfied.
+-----------------------------------------------------------------------+
|      Convergence Field     |     Value    |   Criterion  |  Converged |
+-----------------------------------------------------------------------+
|                    rms[Rho]|      -13.0005|         < -13|         Yes|
+-----------------------------------------------------------------------+
-------------------------------------------------------------------------
+-----------------------------------------------------------------------+
|        File Writing Summary       |              Filename             |
+-----------------------------------------------------------------------+
|SU2 restart                        |restart_flow.dat                   |
|Paraview                           |flow.vtu                           |
|Paraview surface                   |surface_flow.vtu                   |
|CSV file                           |surface_flow.csv                   |
+-----------------------------------------------------------------------+

------------------------- Solver Postprocessing -------------------------
Deleted CNumerics container.
Deleted CIntegration container.
Deleted CSolver container.
Deleted CIteration container.
Deleted CInterpolator container.
Deleted CInterface container.
Deleted CGeometry container.
Deleted CFreeFormDefBox class.
Deleted CSurfaceMovement class.
Deleted CVolumetricMovement class.
Deleted CConfig container.
Deleted nInst container.
Deleted COutput class.
-------------------------------------------------------------------------

------------------------- Exit Success (SU2_CFD) ------------------------

