
-------------------------------------------------------------------------
|    ___ _   _ ___                                                      |
|   / __| | | |_  )   Release 7.0.5 "Blackbird"                         |
|   \__ \ |_| |/ /                                                      |
|   |___/\___//___|   Suite (Computational Fluid Dynamics Code)         |
|                                                                       |
-------------------------------------------------------------------------
| SU2 Project Website: https://su2code.github.io                        |
|                                                                       |
| The SU2 Project is maintained by the SU2 Foundation                   |
| (http://su2foundation.org)                                            |
-------------------------------------------------------------------------
| Copyright 2012-2020, SU2 Contributors                                 |
|                                                                       |
| SU2 is free software; you can redistribute it and/or                  |
| modify it under the terms of the GNU Lesser General Public            |
| License as published by the Free Software Foundation; either          |
| version 2.1 of the License, or (at your option) any later version.    |
|                                                                       |
| SU2 is distributed in the hope that it will be useful,                |
| but WITHOUT ANY WARRANTY; without even the implied warranty of        |
| MERCHANTABILITY or FITNESS FOR A PARTICULAR PURPOSE. See the GNU      |
| Lesser General Public License for more details.                       |
|                                                                       |
| You should have received a copy of the GNU Lesser General Public      |
| License along with SU2. If not, see <http://www.gnu.org/licenses/>.   |
-------------------------------------------------------------------------

Parsing config file for zone 0

----------------- Physical Case Definition ( Zone 0 ) -------------------
Compressible Euler equations.
Mach number: 0.2.
Angle of attack (AoA): 0 deg, and angle of sideslip (AoS): 0 deg.
No restart solution, use the values at infinity (freestream).
Non-Dimensional simulation (P=1.0, Rho=1.0, T=1.0 at the farfield).
The reference area is 1 m^2.
The semi-span will be computed using the max y(3D) value.
The reference length is 1 m.
Reference origin for moment evaluation is (0.25, 0, 0).
Surface(s) where the force coefficients are evaluated: airfoil.

Surface(s) plotted in the output file: airfoil.
Surface(s) affected by the design variables: airfoil.
Input mesh file name: mesh_NACA0012_inv.su2

--------------- Space Numerical Integration ( Zone 0 ) ------------------
Jameson-Schmidt-Turkel scheme (2nd order in space) for the flow inviscid terms.
JST viscous coefficients (2nd & 4th): 0.5, 0.02.
The method includes a grid stretching correction (p = 0.3).
Gradient for upwind reconstruction: Green-Gauss.
Gradient for viscous and source terms: Green-Gauss.

--------------- Time Numerical Integration  ( Zone 0 ) ------------------
Local time stepping (steady state simulation).
Euler implicit method for the flow equations.
FGMRES is used for solving the linear system.
Using a LU-SGS preconditioning.
Convergence criteria of the linear solver: 0.0001.
Max number of linear iterations: 2.
V Multigrid Cycle, with 2 multigrid levels.
Damping factor for the residual restriction: 1.
Damping factor for the correction prolongation: 1.
No CFL adaptation.
+-------------------------------------------+
|  MG Level| Presmooth|PostSmooth|CorrectSmo|
+-------------------------------------------+
|         0|         1|         0|         0|
|         1|         2|         0|         0|
|         2|         3|         0|         0|
+-------------------------------------------+
Courant-Friedrichs-Lewy number:       10

------------------ Convergence Criteria  ( Zone 0 ) ---------------------
Maximum number of solver subiterations: 1000.
Begin convergence monitoring at iteration 10.
Residual minimum value: 1e-13.
Cauchy series min. value: 1e-06.
Number of Cauchy elements: 100.
Begin windowed time average at iteration 0.

-------------------- Output Information ( Zone 0 ) ----------------------
Writing solution files every 250 iterations.
Writing the convergence history file every 1 inner iterations.
Writing the screen convergence history every 1 inner iterations.
The tabular file format is CSV (.csv).
Convergence history file name: history_direct.
Forces breakdown file name: forces_breakdown.dat.
Surface file name: surface_flow.
Volume file name: flow.
Restart file name: restart_flow.dat.

------------- Config File Boundary Information ( Zone 0 ) ---------------
+-----------------------------------------------------------------------+
|                        Marker Type|                        Marker Name|
+-----------------------------------------------------------------------+
|                         Euler wall|                            airfoil|
+-----------------------------------------------------------------------+
|                          Far-field|                           farfield|
+-----------------------------------------------------------------------+

-------------------- Output Preprocessing ( Zone 0 ) --------------------
Screen output fields: INNER_ITER, RMS_DENSITY, RMS_ENERGY, LIFT, DRAG
History output group(s): ITER, RMS_RES, AERO_COEFF
Convergence field(s): RMS_DENSITY
Warning: No (valid) fields chosen for time convergence monitoring. Time convergence monitoring inactive.
Volume output fields: COORDINATES, SOLUTION, PRIMITIVE

------------------- Geometry Preprocessing ( Zone 0 ) -------------------
Two dimensional problem.
5233 grid points.
10216 volume elements.
2 surface markers.
200 boundary elements in index 0 (Marker = airfoil).
50 boundary elements in index 1 (Marker = farfield).
10216 triangles.
Setting point connectivity.
Renumbering points (Reverse Cuthill McKee Ordering).
Recomputing point connectivity.
Setting element connectivity.
Checking the numerical grid orientation.
Identifying edges and vertices.
Computing centers of gravity.
Setting the control volume structure.
Area of the computational grid: 1253.25.
Searching for the closest normal neighbors to the surfaces.
Storing a mapping from global to local point index.
Compute the surface curvature.
Max K: 7835.1. Mean K: 34.8252. Standard deviation K: 494.448.
Checking for periodicity.
Computing mesh quality statistics for the dual control volumes.
+--------------------------------------------------------------+
|           Mesh Quality Metric|        Minimum|        Maximum|
+--------------------------------------------------------------+
|    Orthogonality Angle (deg.)|        62.6714|        89.7089|
|     CV Face Area Aspect Ratio|        1.00001|        7.18337|
|           CV Sub-Volume Ratio|        1.00285|        6.47826|
+--------------------------------------------------------------+
Setting the multigrid structure.
+-------------------------------------------+
|  MG Level|       CVs|Aggl. Rate|       CFL|
+-------------------------------------------+
|         0|      5233|    1/1.00|        10|
|         1|      1533|    1/3.41|   8.11871|
|         2|       443|    1/3.46|    6.5465|
+-------------------------------------------+
Finding max control volume width.
Wetted area = 2.03916 m.
Area projection in the x-plane = 0.119981 m, y-plane = 0.999845 m.
Max. coordinate in the x-direction = 1 m, y-direction = 0.0600055 m.
Min. coordinate in the x-direction = 0 m, y-direction = -0.0600055 m.
Checking if Euler & Symmetry markers are straight/plane:
Boundary marker airfoil is NOT a single straight.
Computing wall distances.

-------------------- Solver Preprocessing ( Zone 0 ) --------------------
Inviscid flow: Computing density based on free-stream
temperature and pressure using the ideal gas law.
Force coefficients computed using free-stream values.

-- Models:
+------------------------------------------------------------------------------+
|          Viscosity Model|        Conductivity Model|              Fluid Model|
+------------------------------------------------------------------------------+
|                        -|                         -|             STANDARD_AIR|
+------------------------------------------------------------------------------+
-- Fluid properties:
+------------------------------------------------------------------------------+
|                  Name|    Dim. value|    Ref. value|      Unit|Non-dim. value|
+------------------------------------------------------------------------------+
|          Gas Constant|       287.058|       287.058|  N.m/kg.K|             1|
|      Spec. Heat Ratio|             -|             -|         -|           1.4|
+------------------------------------------------------------------------------+
-- Initial and free-stream conditions:
+------------------------------------------------------------------------------+
|                  Name|    Dim. value|    Ref. value|      Unit|Non-dim. value|
+------------------------------------------------------------------------------+
|       Static Pressure|        101325|        101325|        Pa|             1|
|               Density|       1.22498|       1.22498|    kg/m^3|             1|
|           Temperature|        288.15|        288.15|         K|             1|
|          Total Energy|        209105|       82715.8|   m^2/s^2|         2.528|
|            Velocity-X|       68.0594|       287.603|       m/s|      0.236643|
|            Velocity-Y|             0|       287.603|       m/s|             0|
|    Velocity Magnitude|       68.0594|       287.603|       m/s|      0.236643|
+------------------------------------------------------------------------------+
|           Mach Number|             -|             -|         -|           0.2|
+------------------------------------------------------------------------------+
Initialize Jacobian structure (Euler). MG level: 0.
Initialize Jacobian structure (Euler). MG level: 1.
Initialize Jacobian structure (Euler). MG level: 2.

------------------- Numerics Preprocessing ( Zone 0 ) -------------------

----------------- Integration Preprocessing ( Zone 0 ) ------------------

------------------- Iteration Preprocessing ( Zone 0 ) ------------------
Euler/Navier-Stokes/RANS fluid iteration.

------------------------------ Begin Solver -----------------------------

Simulation Run using the Single-zone Driver
+----------------------------------------------------------------+
|  Inner_Iter|    rms[Rho]|   rms[RhoE]|          CL|          CD|
+----------------------------------------------------------------+
|           0|   -4.193946|   -3.646418|   -0.049092|    0.740069|
|           1|   -4.314863|   -3.759286|    0.087013|   -0.019963|
|           2|   -4.429337|   -3.878255|    0.032169|   -0.125665|
|           3|   -4.424427|   -3.866949|   -0.036380|   -0.028469|
|           4|   -4.362197|   -3.811655|   -0.039930|    0.070015|
|           5|   -4.387643|   -3.838906|    0.014984|    0.069440|
|           6|   -4.476889|   -3.921826|    0.041733|   -0.011366|
|           7|   -4.420803|   -3.873523|    0.001847|   -0.041049|
|           8|   -4.671036|   -4.115776|   -0.031053|    0.008801|
|           9|   -4.555933|   -4.007417|   -0.009173|    0.037155|
|          10|   -4.835104|   -4.285539|    0.021202|    0.004380|
|          11|   -4.798629|   -4.246896|    0.013960|   -0.022946|
|          12|   -4.888649|   -4.341331|   -0.010330|   -0.005592|
|          13|   -5.114127|   -4.559272|   -0.013706|    0.018057|
|          14|   -5.023653|   -4.473693|    0.002021|    0.009822|
|          15|   -5.268923|   -4.721198|    0.011062|   -0.011327|
|          16|   -5.272566|   -4.720954|    0.003778|   -0.010649|
|          17|   -5.360982|   -4.814430|   -0.005750|    0.006433|
|          18|   -5.550602|   -4.997980|   -0.004290|    0.010928|
|          19|   -5.528007|   -4.977423|    0.003151|   -0.000739|
|          20|   -5.658993|   -5.110213|    0.004925|   -0.007886|
|          21|   -5.651200|   -5.102332|    0.000350|   -0.001659|
|          22|   -5.687034|   -5.142110|   -0.002456|    0.005225|
|          23|   -5.799348|   -5.250837|   -0.000159|    0.002618|
|          24|   -5.689798|   -5.142717|    0.002222|   -0.002657|
|          25|   -5.844387|   -5.297157|    0.001319|   -0.002145|
|          26|   -5.765147|   -5.216495|   -0.000344|    0.001332|
|          27|   -5.812236|   -5.267360|   -0.000110|    0.001649|
|          28|   -5.938531|   -5.387171|    0.001132|   -0.000568|
|          29|   -5.856559|   -5.308410|    0.001354|   -0.001127|
|          30|   -6.025770|   -5.479234|    0.000656|    0.000325|
|          31|   -5.990930|   -5.443347|    0.000390|    0.000958|
|          32|   -6.045502|   -5.500743|    0.000771|   -0.000001|
|          33|   -6.142809|   -5.594831|    0.001085|   -0.000726|
|          34|   -6.128163|   -5.580460|    0.000984|   -0.000211|
|          35|   -6.211682|   -5.664796|    0.000736|    0.000544|
|          36|   -6.246001|   -5.698243|    0.000669|    0.000445|
|          37|   -6.267010|   -5.721780|    0.000762|   -0.000206|
|          38|   -6.302491|   -5.759302|    0.000845|   -0.000452|
|          39|   -6.320756|   -5.777354|    0.000860|   -0.000105|
|          40|   -6.348540|   -5.804026|    0.000839|    0.000279|
|          41|   -6.372308|   -5.827151|    0.000829|    0.000206|
|          42|   -6.393472|   -5.848942|    0.000822|   -0.000108|
|          43|   -6.428879|   -5.884042|    0.000833|   -0.000204|
|          44|   -6.449060|   -5.902689|    0.000878|   -0.000036|
|          45|   -6.472226|   -5.924510|    0.000929|    0.000102|
|          46|   -6.499508|   -5.950143|    0.000938|    0.000049|
|          47|   -6.513346|   -5.962899|    0.000898|   -0.000060|
|          48|   -6.550290|   -5.999237|    0.000861|   -0.000065|
|          49|   -6.584970|   -6.033273|    0.000877|    0.000005|
|          50|   -6.602637|   -6.050262|    0.000920|    0.000026|
|          51|   -6.631395|   -6.077233|    0.000937|   -0.000018|
|          52|   -6.655032|   -6.099535|    0.000915|   -0.000053|
|          53|   -6.678356|   -6.123444|    0.000891|   -0.000036|
|          54|   -6.710373|   -6.156863|    0.000899|   -0.000000|
|          55|   -6.738280|   -6.185827|    0.000933|    0.000004|
|          56|   -6.763526|   -6.211241|    0.000964|   -0.000026|
|          57|   -6.790619|   -6.238120|    0.000974|   -0.000050|
|          58|   -6.818187|   -6.266162|    0.000972|   -0.000043|
|          59|   -6.847953|   -6.297368|    0.000980|   -0.000019|
|          60|   -6.879085|   -6.330374|    0.001002|   -0.000009|
|          61|   -6.908519|   -6.361773|    0.001024|   -0.000022|
|          62|   -6.935756|   -6.391301|    0.001035|   -0.000038|
|          63|   -6.961594|   -6.420024|    0.001035|   -0.000041|
|          64|   -6.987538|   -6.449367|    0.001035|   -0.000031|
|          65|   -7.014894|   -6.480407|    0.001041|   -0.000024|
|          66|   -7.042494|   -6.511906|    0.001049|   -0.000025|
|          67|   -7.069617|   -6.543269|    0.001053|   -0.000032|
|          68|   -7.096848|   -6.574996|    0.001050|   -0.000036|
|          69|   -7.123295|   -6.605701|    0.001045|   -0.000034|
|          70|   -7.149118|   -6.635417|    0.001044|   -0.000032|
|          71|   -7.175534|   -6.665847|    0.001046|   -0.000033|
|          72|   -7.201609|   -6.696305|    0.001047|   -0.000035|
|          73|   -7.227347|   -6.726839|    0.001044|   -0.000037|
|          74|   -7.254177|   -6.758852|    0.001037|   -0.000037|
|          75|   -7.281202|   -6.791094|    0.001031|   -0.000036|
|          76|   -7.306762|   -6.821742|    0.001025|   -0.000037|
|          77|   -7.331005|   -6.851178|    0.001020|   -0.000039|
|          78|   -7.354789|   -6.880366|    0.001012|   -0.000041|
|          79|   -7.378870|   -6.910070|    0.001001|   -0.000040|
|          80|   -7.403383|   -6.940381|    0.000989|   -0.000040|
|          81|   -7.427649|   -6.970418|    0.000977|   -0.000040|
|          82|   -7.451058|   -6.999418|    0.000965|   -0.000041|
|          83|   -7.473606|   -7.027390|    0.000953|   -0.000042|
|          84|   -7.495645|   -7.054723|    0.000940|   -0.000043|
|          85|   -7.517495|   -7.081730|    0.000927|   -0.000043|
|          86|   -7.539204|   -7.108426|    0.000914|   -0.000042|
|          87|   -7.560613|   -7.134657|    0.000902|   -0.000043|
|          88|   -7.581659|   -7.160475|    0.000890|   -0.000044|
|          89|   -7.602382|   -7.186007|    0.000879|   -0.000044|
|          90|   -7.622752|   -7.211164|    0.000868|   -0.000045|
|          91|   -7.642679|   -7.235801|    0.000858|   -0.000045|
|          92|   -7.662037|   -7.259815|    0.000847|   -0.000046|
|          93|   -7.680749|   -7.283217|    0.000837|   -0.000046|
|          94|   -7.698895|   -7.306220|    0.000827|   -0.000047|
|          95|   -7.716524|   -7.328854|    0.000818|   -0.000047|
|          96|   -7.733549|   -7.350822|    0.000808|   -0.000047|
|          97|   -7.749955|   -7.372017|    0.000798|   -0.000048|
|          98|   -7.765845|   -7.392629|    0.000789|   -0.000048|
|          99|   -7.781298|   -7.412788|    0.000780|   -0.000049|
|         100|   -7.796324|   -7.432456|    0.000770|   -0.000049|
|         101|   -7.810903|   -7.451492|    0.000761|   -0.000049|
|         102|   -7.825012|   -7.469756|    0.000752|   -0.000049|
|         103|   -7.838678|   -7.487238|    0.000744|   -0.000050|
|         104|   -7.851984|   -7.504068|    0.000735|   -0.000050|
|         105|   -7.865019|   -7.520395|    0.000727|   -0.000050|
|         106|   -7.877829|   -7.536302|    0.000718|   -0.000050|
|         107|   -7.890417|   -7.551794|    0.000710|   -0.000051|
|         108|   -7.902772|   -7.566853|    0.000702|   -0.000051|
|         109|   -7.914900|   -7.581489|    0.000695|   -0.000051|
|         110|   -7.926828|   -7.595730|    0.000687|   -0.000051|
|         111|   -7.938584|   -7.609601|    0.000679|   -0.000051|
|         112|   -7.950184|   -7.623115|    0.000672|   -0.000052|
|         113|   -7.961626|   -7.636262|    0.000664|   -0.000052|
|         114|   -7.972901|   -7.649018|    0.000657|   -0.000052|
|         115|   -7.983999|   -7.661340|    0.000649|   -0.000052|
|         116|   -7.994919|   -7.673185|    0.000642|   -0.000052|
|         117|   -8.005663|   -7.684541|    0.000635|   -0.000052|
|         118|   -8.016242|   -7.695436|    0.000628|   -0.000053|
|         119|   -8.026667|   -7.705929|    0.000621|   -0.000053|
|         120|   -8.036954|   -7.716087|    0.000614|   -0.000053|
|         121|   -8.047117|   -7.725969|    0.000608|   -0.000053|
|         122|   -8.057177|   -7.735626|    0.000601|   -0.000053|
|         123|   -8.067147|   -7.745096|    0.000595|   -0.000053|
|         124|   -8.077039|   -7.754407|    0.000589|   -0.000053|
|         125|   -8.086856|   -7.763575|    0.000583|   -0.000053|
|         126|   -8.096597|   -7.772605|    0.000577|   -0.000053|
|         127|   -8.106254|   -7.781490|    0.000571|   -0.000053|
|         128|   -8.115821|   -7.790221|    0.000566|   -0.000053|
|         129|   -8.125291|   -7.798795|    0.000560|   -0.000053|
|         130|   -8.134666|   -7.807220|    0.000554|   -0.000054|
|         131|   -8.143946|   -7.815506|    0.000549|   -0.000054|
|         132|   -8.153132|   -7.823668|    0.000544|   -0.000054|
|         133|   -8.162220|   -7.831717|    0.000538|   -0.000054|
|         134|   -8.171210|   -7.839667|    0.000533|   -0.000054|
|         135|   -8.180101|   -7.847528|    0.000528|   -0.000054|
|         136|   -8.188891|   -7.855314|    0.000524|   -0.000054|
|         137|   -8.197583|   -7.863035|    0.000519|   -0.000054|
|         138|   -8.206173|   -7.870699|    0.000514|   -0.000054|
|         139|   -8.214662|   -7.878316|    0.000510|   -0.000054|
|         140|   -8.223045|   -7.885890|    0.000505|   -0.000054|
|         141|   -8.231321|   -7.893428|    0.000501|   -0.000054|
|         142|   -8.239488|   -7.900931|    0.000497|   -0.000054|
|         143|   -8.247545|   -7.908403|    0.000493|   -0.000054|
|         144|   -8.255493|   -7.915848|    0.000489|   -0.000054|
|         145|   -8.263330|   -7.923269|    0.000486|   -0.000054|
|         146|   -8.271059|   -7.930672|    0.000482|   -0.000054|
|         147|   -8.278681|   -7.938060|    0.000479|   -0.000054|
|         148|   -8.286195|   -7.945437|    0.000475|   -0.000054|
|         149|   -8.293605|   -7.952805|    0.000472|   -0.000054|
|         150|   -8.300912|   -7.960168|    0.000469|   -0.000054|
|         151|   -8.308118|   -7.967528|    0.000466|   -0.000054|
|         152|   -8.315227|   -7.974890|    0.000463|   -0.000053|
|         153|   -8.322242|   -7.982257|    0.000460|   -0.000053|
|         154|   -8.329166|   -7.989635|    0.000458|   -0.000053|
|         155|   -8.336003|   -7.997027|    0.000455|   -0.000053|
|         156|   -8.342759|   -8.004438|    0.000453|   -0.000053|
|         157|   -8.349438|   -8.011870|    0.000450|   -0.000053|
|         158|   -8.356044|   -8.019327|    0.000448|   -0.000053|
|         159|   -8.362585|   -8.026811|    0.000446|   -0.000053|
|         160|   -8.369064|   -8.034324|    0.000444|   -0.000053|
|         161|   -8.375488|   -8.041867|    0.000442|   -0.000053|
|         162|   -8.381861|   -8.049441|    0.000440|   -0.000053|
|         163|   -8.388190|   -8.057047|    0.000438|   -0.000053|
|         164|   -8.394481|   -8.064688|    0.000437|   -0.000053|
|         165|   -8.400738|   -8.072363|    0.000435|   -0.000053|
|         166|   -8.406969|   -8.080075|    0.000434|   -0.000053|
|         167|   -8.413178|   -8.087827|    0.000432|   -0.000053|
|         168|   -8.419371|   -8.095619|    0.000431|   -0.000053|
|         169|   -8.425555|   -8.103455|    0.000430|   -0.000053|
|         170|   -8.431733|   -8.111335|    0.000429|   -0.000053|
|         171|   -8.437911|   -8.119261|    0.000428|   -0.000053|
|         172|   -8.444093|   -8.127236|    0.000427|   -0.000052|
|         173|   -8.450285|   -8.135261|    0.000426|   -0.000052|
|         174|   -8.456490|   -8.143336|    0.000425|   -0.000052|
|         175|   -8.462712|   -8.151463|    0.000424|   -0.000052|
|         176|   -8.468956|   -8.159642|    0.000424|   -0.000052|
|         177|   -8.475223|   -8.167875|    0.000423|   -0.000052|
|         178|   -8.481519|   -8.176163|    0.000422|   -0.000052|
|         179|   -8.487846|   -8.184504|    0.000422|   -0.000052|
|         180|   -8.494206|   -8.192899|    0.000421|   -0.000052|
|         181|   -8.500602|   -8.201349|    0.000421|   -0.000052|
|         182|   -8.507038|   -8.209854|    0.000421|   -0.000052|
|         183|   -8.513515|   -8.218416|    0.000421|   -0.000052|
|         184|   -8.520036|   -8.227033|    0.000420|   -0.000052|
|         185|   -8.526603|   -8.235706|    0.000420|   -0.000052|
|         186|   -8.533218|   -8.244437|    0.000420|   -0.000052|
|         187|   -8.539882|   -8.253223|    0.000420|   -0.000052|
|         188|   -8.546598|   -8.262067|    0.000420|   -0.000052|
|         189|   -8.553367|   -8.270968|    0.000420|   -0.000052|
|         190|   -8.560191|   -8.279927|    0.000420|   -0.000051|
|         191|   -8.567071|   -8.288943|    0.000420|   -0.000051|
|         192|   -8.574007|   -8.298016|    0.000421|   -0.000051|
|         193|   -8.581001|   -8.307145|    0.000421|   -0.000051|
|         194|   -8.588054|   -8.316332|    0.000421|   -0.000051|
|         195|   -8.595168|   -8.325577|    0.000421|   -0.000051|
|         196|   -8.602342|   -8.334878|    0.000422|   -0.000051|
|         197|   -8.609578|   -8.344236|    0.000422|   -0.000051|
|         198|   -8.616876|   -8.353650|    0.000422|   -0.000051|
|         199|   -8.624237|   -8.363120|    0.000423|   -0.000051|
|         200|   -8.631661|   -8.372646|    0.000423|   -0.000051|
|         201|   -8.639149|   -8.382228|    0.000424|   -0.000051|
|         202|   -8.646701|   -8.391866|    0.000424|   -0.000051|
|         203|   -8.654318|   -8.401560|    0.000425|   -0.000051|
|         204|   -8.662000|   -8.411308|    0.000425|   -0.000051|
|         205|   -8.669747|   -8.421112|    0.000426|   -0.000051|
|         206|   -8.677560|   -8.430970|    0.000427|   -0.000051|
|         207|   -8.685439|   -8.440883|    0.000427|   -0.000051|
|         208|   -8.693383|   -8.450850|    0.000428|   -0.000051|
|         209|   -8.701394|   -8.460871|    0.000429|   -0.000050|
|         210|   -8.709472|   -8.470946|    0.000429|   -0.000050|
|         211|   -8.717616|   -8.481074|    0.000430|   -0.000050|
|         212|   -8.725826|   -8.491256|    0.000431|   -0.000050|
|         213|   -8.734103|   -8.501491|    0.000432|   -0.000050|
|         214|   -8.742447|   -8.511779|    0.000432|   -0.000050|
|         215|   -8.750857|   -8.522120|    0.000433|   -0.000050|
|         216|   -8.759334|   -8.532514|    0.000434|   -0.000050|
|         217|   -8.767878|   -8.542959|    0.000435|   -0.000050|
|         218|   -8.776489|   -8.553457|    0.000435|   -0.000050|
|         219|   -8.785166|   -8.564007|    0.000436|   -0.000050|
|         220|   -8.793910|   -8.574609|    0.000437|   -0.000050|
|         221|   -8.802720|   -8.585262|    0.000438|   -0.000050|
|         222|   -8.811597|   -8.595966|    0.000439|   -0.000050|
|         223|   -8.820540|   -8.606721|    0.000440|   -0.000050|
|         224|   -8.829550|   -8.617527|    0.000440|   -0.000050|
|         225|   -8.838625|   -8.628383|    0.000441|   -0.000050|
|         226|   -8.847767|   -8.639289|    0.000442|   -0.000050|
|         227|   -8.856975|   -8.650245|    0.000443|   -0.000050|
|         228|   -8.866248|   -8.661250|    0.000444|   -0.000050|
|         229|   -8.875587|   -8.672306|    0.000445|   -0.000050|
|         230|   -8.884992|   -8.683410|    0.000446|   -0.000050|
|         231|   -8.894462|   -8.694564|    0.000447|   -0.000050|
|         232|   -8.903997|   -8.705766|    0.000447|   -0.000050|
|         233|   -8.913598|   -8.717017|    0.000448|   -0.000050|
|         234|   -8.923263|   -8.728317|    0.000449|   -0.000050|
|         235|   -8.932993|   -8.739664|    0.000450|   -0.000050|
|         236|   -8.942788|   -8.751060|    0.000451|   -0.000050|
|         237|   -8.952648|   -8.762504|    0.000452|   -0.000050|
|         238|   -8.962571|   -8.773995|    0.000453|   -0.000050|
|         239|   -8.972559|   -8.785533|    0.000454|   -0.000049|
|         240|   -8.982611|   -8.797119|    0.000454|   -0.000049|
|         241|   -8.992727|   -8.808751|    0.000455|   -0.000049|
|         242|   -9.002907|   -8.820430|    0.000456|   -0.000049|
|         243|   -9.013150|   -8.832155|    0.000457|   -0.000049|
|         244|   -9.023456|   -8.843926|    0.000458|   -0.000049|
|         245|   -9.033826|   -8.855742|    0.000459|   -0.000049|
|         246|   -9.044258|   -8.867604|    0.000460|   -0.000049|
|         247|   -9.054753|   -8.879511|    0.000460|   -0.000049|
|         248|   -9.065311|   -8.891463|    0.000461|   -0.000049|
|         249|   -9.075932|   -8.903460|    0.000462|   -0.000049|
|         250|   -9.086615|   -8.915501|    0.000463|   -0.000049|
+-----------------------------------------------------------------------+
|        File Writing Summary       |              Filename             |
+-----------------------------------------------------------------------+
|SU2 restart                        |restart_flow.dat                   |
|Paraview                           |flow.vtu                           |
|Paraview surface                   |surface_flow.vtu                   |
|CSV file                           |surface_flow.csv                   |
+-----------------------------------------------------------------------+
+----------------------------------------------------------------+
|  Inner_Iter|    rms[Rho]|   rms[RhoE]|          CL|          CD|
+----------------------------------------------------------------+
|         251|   -9.097360|   -8.927586|    0.000464|   -0.000049|
|         252|   -9.108167|   -8.939715|    0.000465|   -0.000049|
|         253|   -9.119035|   -8.951887|    0.000465|   -0.000049|
|         254|   -9.129966|   -8.964102|    0.000466|   -0.000049|
|         255|   -9.140957|   -8.976360|    0.000467|   -0.000049|
|         256|   -9.152010|   -8.988661|    0.000468|   -0.000049|
|         257|   -9.163125|   -9.001004|    0.000468|   -0.000049|
|         258|   -9.174300|   -9.013389|    0.000469|   -0.000049|
|         259|   -9.185535|   -9.025815|    0.000470|   -0.000049|
|         260|   -9.196832|   -9.038282|    0.000471|   -0.000049|
|         261|   -9.208189|   -9.050791|    0.000471|   -0.000049|
|         262|   -9.219606|   -9.063339|    0.000472|   -0.000049|
|         263|   -9.231083|   -9.075928|    0.000473|   -0.000049|
|         264|   -9.242620|   -9.088556|    0.000474|   -0.000049|
|         265|   -9.254217|   -9.101224|    0.000474|   -0.000049|
|         266|   -9.265874|   -9.113931|    0.000475|   -0.000049|
|         267|   -9.277590|   -9.126676|    0.000476|   -0.000049|
|         268|   -9.289365|   -9.139459|    0.000476|   -0.000049|
|         269|   -9.301199|   -9.152280|    0.000477|   -0.000049|
|         270|   -9.313092|   -9.165138|    0.000478|   -0.000049|
|         271|   -9.325044|   -9.178033|    0.000478|   -0.000049|
|         272|   -9.337054|   -9.190964|    0.000479|   -0.000049|
|         273|   -9.349123|   -9.203931|    0.000480|   -0.000049|
|         274|   -9.361250|   -9.216933|    0.000480|   -0.000049|
|         275|   -9.373434|   -9.229971|    0.000481|   -0.000049|
|         276|   -9.385677|   -9.243042|    0.000482|   -0.000049|
|         277|   -9.397977|   -9.256148|    0.000482|   -0.000049|
|         278|   -9.410335|   -9.269287|    0.000483|   -0.000049|
|         279|   -9.422749|   -9.282459|    0.000483|   -0.000049|
|         280|   -9.435221|   -9.295664|    0.000484|   -0.000049|
|         281|   -9.447750|   -9.308900|    0.000484|   -0.000049|
|         282|   -9.460335|   -9.322168|    0.000485|   -0.000049|
|         283|   -9.472976|   -9.335467|    0.000485|   -0.000049|
|         284|   -9.485674|   -9.348795|    0.000486|   -0.000049|
|         285|   -9.498428|   -9.362153|    0.000487|   -0.000049|
|         286|   -9.511237|   -9.375541|    0.000487|   -0.000049|
|         287|   -9.524102|   -9.388956|    0.000488|   -0.000049|
|         288|   -9.537022|   -9.402399|    0.000488|   -0.000049|
|         289|   -9.549997|   -9.415870|    0.000489|   -0.000049|
|         290|   -9.563027|   -9.429367|    0.000489|   -0.000049|
|         291|   -9.576112|   -9.442890|    0.000490|   -0.000049|
|         292|   -9.589250|   -9.456438|    0.000490|   -0.000049|
|         293|   -9.602443|   -9.470010|    0.000490|   -0.000049|
|         294|   -9.615690|   -9.483607|    0.000491|   -0.000049|
|         295|   -9.628990|   -9.497226|    0.000491|   -0.000049|
|         296|   -9.642343|   -9.510868|    0.000492|   -0.000049|
|         297|   -9.655750|   -9.524533|    0.000492|   -0.000049|
|         298|   -9.669209|   -9.538218|    0.000493|   -0.000049|
|         299|   -9.682720|   -9.551924|    0.000493|   -0.000049|
|         300|   -9.696284|   -9.565649|    0.000493|   -0.000049|
|         301|   -9.709899|   -9.579394|    0.000494|   -0.000049|
|         302|   -9.723566|   -9.593157|    0.000494|   -0.000049|
|         303|   -9.737284|   -9.606938|    0.000495|   -0.000049|
|         304|   -9.751053|   -9.620735|    0.000495|   -0.000049|
|         305|   -9.764872|   -9.634549|    0.000495|   -0.000049|
|         306|   -9.778742|   -9.648379|    0.000496|   -0.000049|
|         307|   -9.792662|   -9.662223|    0.000496|   -0.000049|
|         308|   -9.806631|   -9.676082|    0.000496|   -0.000049|
|         309|   -9.820649|   -9.689954|    0.000497|   -0.000049|
|         310|   -9.834717|   -9.703838|    0.000497|   -0.000049|
|         311|   -9.848833|   -9.717735|    0.000497|   -0.000049|
|         312|   -9.862997|   -9.731642|    0.000498|   -0.000049|
|         313|   -9.877210|   -9.745560|    0.000498|   -0.000049|
|         314|   -9.891470|   -9.759488|    0.000498|   -0.000049|
|         315|   -9.905777|   -9.773426|    0.000498|   -0.000049|
|         316|   -9.920131|   -9.787371|    0.000499|   -0.000049|
|         317|   -9.934531|   -9.801325|    0.000499|   -0.000049|
|         318|   -9.948978|   -9.815285|    0.000499|   -0.000049|
|         319|   -9.963470|   -9.829252|    0.000500|   -0.000049|
|         320|   -9.978008|   -9.843225|    0.000500|   -0.000049|
|         321|   -9.992590|   -9.857202|    0.000500|   -0.000049|
|         322|  -10.007218|   -9.871185|    0.000500|   -0.000049|
|         323|  -10.021889|   -9.885171|    0.000501|   -0.000049|
|         324|  -10.036605|   -9.899160|    0.000501|   -0.000049|
|         325|  -10.051364|   -9.913152|    0.000501|   -0.000049|
|         326|  -10.066166|   -9.927146|    0.000501|   -0.000049|
|         327|  -10.081011|   -9.941142|    0.000501|   -0.000049|
|         328|  -10.095898|   -9.955138|    0.000502|   -0.000049|
|         329|  -10.110828|   -9.969135|    0.000502|   -0.000049|
|         330|  -10.125798|   -9.983132|    0.000502|   -0.000049|
|         331|  -10.140811|   -9.997128|    0.000502|   -0.000049|
|         332|  -10.155863|  -10.011123|    0.000502|   -0.000049|
|         333|  -10.170957|  -10.025116|    0.000503|   -0.000049|
|         334|  -10.186090|  -10.039107|    0.000503|   -0.000049|
|         335|  -10.201263|  -10.053096|    0.000503|   -0.000049|
|         336|  -10.216475|  -10.067082|    0.000503|   -0.000049|
|         337|  -10.231726|  -10.081064|    0.000503|   -0.000049|
|         338|  -10.247015|  -10.095042|    0.000504|   -0.000049|
|         339|  -10.262342|  -10.109017|    0.000504|   -0.000049|
|         340|  -10.277707|  -10.122987|    0.000504|   -0.000049|
|         341|  -10.293109|  -10.136952|    0.000504|   -0.000049|
|         342|  -10.308548|  -10.150912|    0.000504|   -0.000049|
|         343|  -10.324024|  -10.164866|    0.000504|   -0.000049|
|         344|  -10.339535|  -10.178815|    0.000504|   -0.000049|
|         345|  -10.355081|  -10.192758|    0.000505|   -0.000049|
|         346|  -10.370663|  -10.206694|    0.000505|   -0.000049|
|         347|  -10.386280|  -10.220625|    0.000505|   -0.000049|
|         348|  -10.401931|  -10.234549|    0.000505|   -0.000049|
|         349|  -10.417615|  -10.248466|    0.000505|   -0.000049|
|         350|  -10.433334|  -10.262376|    0.000505|   -0.000049|
|         351|  -10.449085|  -10.276279|    0.000505|   -0.000049|
|         352|  -10.464869|  -10.290175|    0.000505|   -0.000049|
|         353|  -10.480685|  -10.304063|    0.000506|   -0.000049|
|         354|  -10.496532|  -10.317944|    0.000506|   -0.000049|
|         355|  -10.512411|  -10.331818|    0.000506|   -0.000049|
|         356|  -10.528321|  -10.345684|    0.000506|   -0.000049|
|         357|  -10.544261|  -10.359543|    0.000506|   -0.000049|
|         358|  -10.560232|  -10.373394|    0.000506|   -0.000049|
|         359|  -10.576231|  -10.387238|    0.000506|   -0.000049|
|         360|  -10.592260|  -10.401073|    0.000506|   -0.000049|
|         361|  -10.608318|  -10.414902|    0.000506|   -0.000049|
|         362|  -10.624404|  -10.428723|    0.000506|   -0.000049|
|         363|  -10.640517|  -10.442536|    0.000507|   -0.000049|
|         364|  -10.656658|  -10.456342|    0.000507|   -0.000049|
|         365|  -10.672826|  -10.470140|    0.000507|   -0.000049|
|         366|  -10.689019|  -10.483932|    0.000507|   -0.000049|
|         367|  -10.705239|  -10.497715|    0.000507|   -0.000049|
|         368|  -10.721485|  -10.511492|    0.000507|   -0.000049|
|         369|  -10.737755|  -10.525261|    0.000507|   -0.000049|
|         370|  -10.754049|  -10.539024|    0.000507|   -0.000049|
|         371|  -10.770368|  -10.552779|    0.000507|   -0.000049|
|         372|  -10.786710|  -10.566527|    0.000507|   -0.000049|
|         373|  -10.803075|  -10.580268|    0.000507|   -0.000049|
|         374|  -10.819463|  -10.594004|    0.000507|   -0.000049|
|         375|  -10.835872|  -10.607732|    0.000507|   -0.000049|
|         376|  -10.852303|  -10.621454|    0.000507|   -0.000049|
|         377|  -10.868755|  -10.635168|    0.000508|   -0.000049|
|         378|  -10.885227|  -10.648877|    0.000508|   -0.000049|
|         379|  -10.901719|  -10.662580|    0.000508|   -0.000049|
|         380|  -10.918231|  -10.676276|    0.000508|   -0.000049|
|         381|  -10.934761|  -10.689966|    0.000508|   -0.000049|
|         382|  -10.951309|  -10.703649|    0.000508|   -0.000049|
|         383|  -10.967876|  -10.717327|    0.000508|   -0.000049|
|         384|  -10.984459|  -10.730998|    0.000508|   -0.000049|
|         385|  -11.001058|  -10.744662|    0.000508|   -0.000049|
|         386|  -11.017674|  -10.758322|    0.000508|   -0.000049|
|         387|  -11.034304|  -10.771976|    0.000508|   -0.000049|
|         388|  -11.050950|  -10.785623|    0.000508|   -0.000049|
|         389|  -11.067609|  -10.799262|    0.000508|   -0.000049|
|         390|  -11.084282|  -10.812898|    0.000508|   -0.000049|
|         391|  -11.100967|  -10.826525|    0.000508|   -0.000049|
|         392|  -11.117664|  -10.840146|    0.000508|   -0.000049|
|         393|  -11.134373|  -10.853762|    0.000508|   -0.000049|
|         394|  -11.151093|  -10.867372|    0.000508|   -0.000049|
|         395|  -11.167822|  -10.880972|    0.000508|   -0.000049|
|         396|  -11.184560|  -10.894567|    0.000508|   -0.000049|
|         397|  -11.201307|  -10.908154|    0.000508|   -0.000049|
|         398|  -11.218062|  -10.921734|    0.000508|   -0.000049|
|         399|  -11.234823|  -10.935307|    0.000508|   -0.000049|
|         400|  -11.251590|  -10.948871|    0.000509|   -0.000049|
|         401|  -11.268363|  -10.962427|    0.000509|   -0.000049|
|         402|  -11.285140|  -10.975975|    0.000509|   -0.000049|
|         403|  -11.301919|  -10.989513|    0.000509|   -0.000049|
|         404|  -11.318702|  -11.003043|    0.000509|   -0.000049|
|         405|  -11.335486|  -11.016562|    0.000509|   -0.000049|
|         406|  -11.352271|  -11.030073|    0.000509|   -0.000049|
|         407|  -11.369055|  -11.043571|    0.000509|   -0.000049|
|         408|  -11.385838|  -11.057060|    0.000509|   -0.000049|
|         409|  -11.402619|  -11.070537|    0.000509|   -0.000049|
|         410|  -11.419396|  -11.084000|    0.000509|   -0.000049|
|         411|  -11.436168|  -11.097453|    0.000509|   -0.000049|
|         412|  -11.452934|  -11.110890|    0.000509|   -0.000049|
|         413|  -11.469694|  -11.124316|    0.000509|   -0.000049|
|         414|  -11.486445|  -11.137727|    0.000509|   -0.000049|
|         415|  -11.503186|  -11.151118|    0.000509|   -0.000049|
|         416|  -11.519918|  -11.164499|    0.000509|   -0.000049|
|         417|  -11.536637|  -11.177862|    0.000509|   -0.000049|
|         418|  -11.553342|  -11.191207|    0.000509|   -0.000049|
|         419|  -11.570032|  -11.204532|    0.000509|   -0.000049|
|         420|  -11.586705|  -11.217839|    0.000509|   -0.000049|
|         421|  -11.603360|  -11.231124|    0.000509|   -0.000049|
|         422|  -11.619997|  -11.244390|    0.000509|   -0.000049|
|         423|  -11.636613|  -11.257636|    0.000509|   -0.000049|
|         424|  -11.653204|  -11.270855|    0.000509|   -0.000049|
|         425|  -11.669773|  -11.284054|    0.000509|   -0.000049|
|         426|  -11.686315|  -11.297228|    0.000509|   -0.000049|
|         427|  -11.702829|  -11.310372|    0.000509|   -0.000049|
|         428|  -11.719315|  -11.323496|    0.000509|   -0.000049|
|         429|  -11.735766|  -11.336587|    0.000509|   -0.000049|
|         430|  -11.752185|  -11.349648|    0.000509|   -0.000049|
|         431|  -11.768568|  -11.362680|    0.000509|   -0.000049|
|         432|  -11.784914|  -11.375682|    0.000509|   -0.000049|
|         433|  -11.801223|  -11.388655|    0.000509|   -0.000049|
|         434|  -11.817487|  -11.401588|    0.000509|   -0.000049|
|         435|  -11.833707|  -11.414488|    0.000509|   -0.000049|
|         436|  -11.849883|  -11.427356|    0.000509|   -0.000049|
|         437|  -11.866013|  -11.440187|    0.000509|   -0.000049|
|         438|  -11.882087|  -11.452975|    0.000509|   -0.000049|
|         439|  -11.898111|  -11.465729|    0.000509|   -0.000049|
|         440|  -11.914080|  -11.478437|    0.000509|   -0.000049|
|         441|  -11.929990|  -11.491105|    0.000509|   -0.000049|
|         442|  -11.945842|  -11.503731|    0.000509|   -0.000049|
|         443|  -11.961632|  -11.516314|    0.000509|   -0.000049|
|         444|  -11.977355|  -11.528849|    0.000509|   -0.000049|
|         445|  -11.993014|  -11.541341|    0.000509|   -0.000049|
|         446|  -12.008604|  -11.553788|    0.000509|   -0.000049|
|         447|  -12.024119|  -11.566182|    0.000509|   -0.000049|
|         448|  -12.039561|  -11.578528|    0.000509|   -0.000049|
|         449|  -12.054924|  -11.590821|    0.000509|   -0.000049|
|         450|  -12.070209|  -11.603061|    0.000509|   -0.000049|
|         451|  -12.085417|  -11.615258|    0.000509|   -0.000049|
|         452|  -12.100536|  -11.627391|    0.000509|   -0.000049|
|         453|  -12.115572|  -11.639479|    0.000509|   -0.000049|
|         454|  -12.130519|  -11.651509|    0.000509|   -0.000049|
|         455|  -12.145375|  -11.663481|    0.000509|   -0.000049|
|         456|  -12.160137|  -11.675395|    0.000509|   -0.000049|
|         457|  -12.174800|  -11.687250|    0.000509|   -0.000049|
|         458|  -12.189372|  -11.699049|    0.000509|   -0.000049|
|         459|  -12.203847|  -11.710796|    0.000509|   -0.000049|
|         460|  -12.218216|  -11.722477|    0.000509|   -0.000049|
|         461|  -12.232480|  -11.734093|    0.000509|   -0.000049|
|         462|  -12.246647|  -11.745656|    0.000509|   -0.000049|
|         463|  -12.260703|  -11.757159|    0.000509|   -0.000049|
|         464|  -12.274655|  -11.768598|    0.000509|   -0.000049|
|         465|  -12.288492|  -11.779975|    0.000509|   -0.000049|
|         466|  -12.302233|  -11.791302|    0.000509|   -0.000049|
|         467|  -12.315844|  -11.802546|    0.000509|   -0.000049|
|         468|  -12.329360|  -11.813749|    0.000509|   -0.000049|
|         469|  -12.342752|  -11.824878|    0.000509|   -0.000049|
|         470|  -12.356027|  -11.835943|    0.000509|   -0.000049|
|         471|  -12.369200|  -11.846962|    0.000509|   -0.000049|
|         472|  -12.382252|  -11.857905|    0.000509|   -0.000049|
|         473|  -12.395199|  -11.868798|    0.000509|   -0.000049|
|         474|  -12.408027|  -11.879631|    0.000509|   -0.000049|
|         475|  -12.420726|  -11.890389|    0.000509|   -0.000049|
|         476|  -12.433318|  -11.901088|    0.000509|   -0.000049|
|         477|  -12.445810|  -11.911750|    0.000509|   -0.000049|
|         478|  -12.458172|  -11.922325|    0.000509|   -0.000049|
|         479|  -12.470423|  -11.932853|    0.000509|   -0.000049|
|         480|  -12.482565|  -11.943322|    0.000509|   -0.000049|
|         481|  -12.494604|  -11.953747|    0.000509|   -0.000049|
|         482|  -12.506532|  -11.964108|    0.000509|   -0.000049|
|         483|  -12.518334|  -11.974404|    0.000509|   -0.000049|
|         484|  -12.530043|  -11.984658|    0.000509|   -0.000049|
|         485|  -12.541632|  -11.994844|    0.000509|   -0.000049|
|         486|  -12.553148|  -12.005007|    0.000509|   -0.000049|
|         487|  -12.564526|  -12.015082|    0.000509|   -0.000049|
|         488|  -12.575829|  -12.025135|    0.000509|   -0.000049|
|         489|  -12.587017|  -12.035122|    0.000509|   -0.000049|
|         490|  -12.598114|  -12.045062|    0.000509|   -0.000049|
|         491|  -12.609108|  -12.054957|    0.000509|   -0.000049|
|         492|  -12.620032|  -12.064815|    0.000509|   -0.000049|
|         493|  -12.630832|  -12.074609|    0.000509|   -0.000049|
|         494|  -12.641553|  -12.084364|    0.000510|   -0.000049|
|         495|  -12.652215|  -12.094104|    0.000510|   -0.000049|
|         496|  -12.662749|  -12.103753|    0.000510|   -0.000049|
|         497|  -12.673254|  -12.113420|    0.000510|   -0.000049|
|         498|  -12.683641|  -12.123008|    0.000510|   -0.000049|
|         499|  -12.693952|  -12.132556|    0.000510|   -0.000049|
|         500|  -12.704206|  -12.142088|    0.000510|   -0.000049|
+-----------------------------------------------------------------------+
|        File Writing Summary       |              Filename             |
+-----------------------------------------------------------------------+
|SU2 restart                        |restart_flow.dat                   |
|Paraview                           |flow.vtu                           |
|Paraview surface                   |surface_flow.vtu                   |
|CSV file                           |surface_flow.csv                   |
+-----------------------------------------------------------------------+
+----------------------------------------------------------------+
|  Inner_Iter|    rms[Rho]|   rms[RhoE]|          CL|          CD|
+----------------------------------------------------------------+
|         501|  -12.714367|  -12.151566|    0.000510|   -0.000049|
|         502|  -12.724457|  -12.161010|    0.000510|   -0.000049|
|         503|  -12.734503|  -12.170447|    0.000510|   -0.000049|
|         504|  -12.744460|  -12.179821|    0.000510|   -0.000049|
|         505|  -12.754364|  -12.189171|    0.000510|   -0.000049|
|         506|  -12.764212|  -12.198497|    0.000510|   -0.000049|
|         507|  -12.774019|  -12.207819|    0.000510|   -0.000049|
|         508|  -12.783717|  -12.217057|    0.000510|   -0.000049|
|         509|  -12.793428|  -12.226336|    0.000510|   -0.000049|
|         510|  -12.803044|  -12.235543|    0.000510|   -0.000049|
|         511|  -12.812607|  -12.244737|    0.000510|   -0.000049|
|         512|  -12.822125|  -12.253899|    0.000510|   -0.000049|
|         513|  -12.831626|  -12.263060|    0.000510|   -0.000049|
|         514|  -12.841057|  -12.272192|    0.000510|   -0.000049|
|         515|  -12.850447|  -12.281285|    0.000510|   -0.000049|
|         516|  -12.859808|  -12.290390|    0.000510|   -0.000049|
|         517|  -12.869106|  -12.299439|    0.000510|   -0.000049|
|         518|  -12.878412|  -12.308518|    0.000510|   -0.000049|
|         519|  -12.887673|  -12.317577|    0.000510|   -0.000049|
|         520|  -12.896867|  -12.326590|    0.000510|   -0.000049|
|         521|  -12.906044|  -12.335581|    0.000510|   -0.000049|
|         522|  -12.915200|  -12.344576|    0.000510|   -0.000049|
|         523|  -12.924352|  -12.353580|    0.000510|   -0.000049|
|         524|  -12.933472|  -12.362575|    0.000510|   -0.000049|
|         525|  -12.942550|  -12.371535|    0.000510|   -0.000049|
|         526|  -12.951628|  -12.380505|    0.000510|   -0.000049|
|         527|  -12.960649|  -12.389451|    0.000510|   -0.000049|
|         528|  -12.969676|  -12.398382|    0.000510|   -0.000049|
|         529|  -12.978638|  -12.407287|    0.000510|   -0.000049|
|         530|  -12.987644|  -12.416227|    0.000510|   -0.000049|
|         531|  -12.996641|  -12.425169|    0.000510|   -0.000049|
|         532|  -13.005550|  -12.434049|    0.000510|   -0.000049|

----------------------------- Solver Exit -------------------------------
All convergence criteria satisfied.
+-----------------------------------------------------------------------+
|      Convergence Field     |     Value    |   Criterion  |  Converged |
+-----------------------------------------------------------------------+
|                    rms[Rho]|      -13.0055|         < -13|         Yes|
+-----------------------------------------------------------------------+
-------------------------------------------------------------------------
+-----------------------------------------------------------------------+
|        File Writing Summary       |              Filename             |
+-----------------------------------------------------------------------+
|SU2 restart                        |restart_flow.dat                   |
|Paraview                           |flow.vtu                           |
|Paraview surface                   |surface_flow.vtu                   |
|CSV file                           |surface_flow.csv                   |
+-----------------------------------------------------------------------+

------------------------- Solver Postprocessing -------------------------
Deleted CNumerics container.
Deleted CIntegration container.
Deleted CSolver container.
Deleted CIteration container.
Deleted CInterpolator container.
Deleted CInterface container.
Deleted CGeometry container.
Deleted CFreeFormDefBox class.
Deleted CSurfaceMovement class.
Deleted CVolumetricMovement class.
Deleted CConfig container.
Deleted nInst container.
Deleted COutput class.
-------------------------------------------------------------------------

------------------------- Exit Success (SU2_CFD) ------------------------

