
-------------------------------------------------------------------------
|    ___ _   _ ___                                                      |
|   / __| | | |_  )   Release 7.0.5 "Blackbird"                         |
|   \__ \ |_| |/ /                                                      |
|   |___/\___//___|   Suite (Computational Fluid Dynamics Code)         |
|                                                                       |
-------------------------------------------------------------------------
| SU2 Project Website: https://su2code.github.io                        |
|                                                                       |
| The SU2 Project is maintained by the SU2 Foundation                   |
| (http://su2foundation.org)                                            |
-------------------------------------------------------------------------
| Copyright 2012-2020, SU2 Contributors                                 |
|                                                                       |
| SU2 is free software; you can redistribute it and/or                  |
| modify it under the terms of the GNU Lesser General Public            |
| License as published by the Free Software Foundation; either          |
| version 2.1 of the License, or (at your option) any later version.    |
|                                                                       |
| SU2 is distributed in the hope that it will be useful,                |
| but WITHOUT ANY WARRANTY; without even the implied warranty of        |
| MERCHANTABILITY or FITNESS FOR A PARTICULAR PURPOSE. See the GNU      |
| Lesser General Public License for more details.                       |
|                                                                       |
| You should have received a copy of the GNU Lesser General Public      |
| License along with SU2. If not, see <http://www.gnu.org/licenses/>.   |
-------------------------------------------------------------------------

Parsing config file for zone 0

----------------- Physical Case Definition ( Zone 0 ) -------------------
Compressible Euler equations.
Mach number: 0.15.
Angle of attack (AoA): -0.5 deg, and angle of sideslip (AoS): 0 deg.
No restart solution, use the values at infinity (freestream).
Non-Dimensional simulation (P=1.0, Rho=1.0, T=1.0 at the farfield).
The reference area is 1 m^2.
The semi-span will be computed using the max y(3D) value.
The reference length is 1 m.
Reference origin for moment evaluation is (0.25, 0, 0).
Surface(s) where the force coefficients are evaluated: airfoil.

Surface(s) plotted in the output file: airfoil.
Surface(s) affected by the design variables: airfoil.
Input mesh file name: mesh_NACA0012_inv.su2

--------------- Space Numerical Integration ( Zone 0 ) ------------------
Jameson-Schmidt-Turkel scheme (2nd order in space) for the flow inviscid terms.
JST viscous coefficients (2nd & 4th): 0.5, 0.02.
The method includes a grid stretching correction (p = 0.3).
Gradient for upwind reconstruction: Green-Gauss.
Gradient for viscous and source terms: Green-Gauss.

--------------- Time Numerical Integration  ( Zone 0 ) ------------------
Local time stepping (steady state simulation).
Euler implicit method for the flow equations.
FGMRES is used for solving the linear system.
Using a LU-SGS preconditioning.
Convergence criteria of the linear solver: 0.0001.
Max number of linear iterations: 2.
V Multigrid Cycle, with 2 multigrid levels.
Damping factor for the residual restriction: 1.
Damping factor for the correction prolongation: 1.
No CFL adaptation.
+-------------------------------------------+
|  MG Level| Presmooth|PostSmooth|CorrectSmo|
+-------------------------------------------+
|         0|         1|         0|         0|
|         1|         2|         0|         0|
|         2|         3|         0|         0|
+-------------------------------------------+
Courant-Friedrichs-Lewy number:       10

------------------ Convergence Criteria  ( Zone 0 ) ---------------------
Maximum number of solver subiterations: 1000.
Begin convergence monitoring at iteration 10.
Residual minimum value: 1e-13.
Cauchy series min. value: 1e-06.
Number of Cauchy elements: 100.
Begin windowed time average at iteration 0.

-------------------- Output Information ( Zone 0 ) ----------------------
Writing solution files every 250 iterations.
Writing the convergence history file every 1 inner iterations.
Writing the screen convergence history every 1 inner iterations.
The tabular file format is CSV (.csv).
Convergence history file name: history_direct.
Forces breakdown file name: forces_breakdown.dat.
Surface file name: surface_flow.
Volume file name: flow.
Restart file name: restart_flow.dat.

------------- Config File Boundary Information ( Zone 0 ) ---------------
+-----------------------------------------------------------------------+
|                        Marker Type|                        Marker Name|
+-----------------------------------------------------------------------+
|                         Euler wall|                            airfoil|
+-----------------------------------------------------------------------+
|                          Far-field|                           farfield|
+-----------------------------------------------------------------------+

-------------------- Output Preprocessing ( Zone 0 ) --------------------
Screen output fields: INNER_ITER, RMS_DENSITY, RMS_ENERGY, LIFT, DRAG
History output group(s): ITER, RMS_RES, AERO_COEFF
Convergence field(s): RMS_DENSITY
Warning: No (valid) fields chosen for time convergence monitoring. Time convergence monitoring inactive.
Volume output fields: COORDINATES, SOLUTION, PRIMITIVE

------------------- Geometry Preprocessing ( Zone 0 ) -------------------
Two dimensional problem.
5233 grid points.
10216 volume elements.
2 surface markers.
200 boundary elements in index 0 (Marker = airfoil).
50 boundary elements in index 1 (Marker = farfield).
10216 triangles.
Setting point connectivity.
Renumbering points (Reverse Cuthill McKee Ordering).
Recomputing point connectivity.
Setting element connectivity.
Checking the numerical grid orientation.
Identifying edges and vertices.
Computing centers of gravity.
Setting the control volume structure.
Area of the computational grid: 1253.25.
Searching for the closest normal neighbors to the surfaces.
Storing a mapping from global to local point index.
Compute the surface curvature.
Max K: 7835.1. Mean K: 34.8252. Standard deviation K: 494.448.
Checking for periodicity.
Computing mesh quality statistics for the dual control volumes.
+--------------------------------------------------------------+
|           Mesh Quality Metric|        Minimum|        Maximum|
+--------------------------------------------------------------+
|    Orthogonality Angle (deg.)|        62.6714|        89.7089|
|     CV Face Area Aspect Ratio|        1.00001|        7.18337|
|           CV Sub-Volume Ratio|        1.00285|        6.47826|
+--------------------------------------------------------------+
Setting the multigrid structure.
+-------------------------------------------+
|  MG Level|       CVs|Aggl. Rate|       CFL|
+-------------------------------------------+
|         0|      5233|    1/1.00|        10|
|         1|      1533|    1/3.41|   8.11871|
|         2|       443|    1/3.46|    6.5465|
+-------------------------------------------+
Finding max control volume width.
Wetted area = 2.03916 m.
Area projection in the x-plane = 0.119981 m, y-plane = 0.999845 m.
Max. coordinate in the x-direction = 1 m, y-direction = 0.0600055 m.
Min. coordinate in the x-direction = 0 m, y-direction = -0.0600055 m.
Checking if Euler & Symmetry markers are straight/plane:
Boundary marker airfoil is NOT a single straight.
Computing wall distances.

-------------------- Solver Preprocessing ( Zone 0 ) --------------------
Inviscid flow: Computing density based on free-stream
temperature and pressure using the ideal gas law.
Force coefficients computed using free-stream values.

-- Models:
+------------------------------------------------------------------------------+
|          Viscosity Model|        Conductivity Model|              Fluid Model|
+------------------------------------------------------------------------------+
|                        -|                         -|             STANDARD_AIR|
+------------------------------------------------------------------------------+
-- Fluid properties:
+------------------------------------------------------------------------------+
|                  Name|    Dim. value|    Ref. value|      Unit|Non-dim. value|
+------------------------------------------------------------------------------+
|          Gas Constant|       287.058|       287.058|  N.m/kg.K|             1|
|      Spec. Heat Ratio|             -|             -|         -|           1.4|
+------------------------------------------------------------------------------+
-- Initial and free-stream conditions:
+------------------------------------------------------------------------------+
|                  Name|    Dim. value|    Ref. value|      Unit|Non-dim. value|
+------------------------------------------------------------------------------+
|       Static Pressure|        101325|        101325|        Pa|             1|
|               Density|       1.22498|       1.22498|    kg/m^3|             1|
|           Temperature|        288.15|        288.15|         K|             1|
|          Total Energy|        208092|       82715.8|   m^2/s^2|       2.51575|
|            Velocity-X|       51.0426|       287.603|       m/s|      0.177476|
|            Velocity-Y|     -0.445442|       287.603|       m/s|   -0.00154881|
|    Velocity Magnitude|       51.0446|       287.603|       m/s|      0.177482|
+------------------------------------------------------------------------------+
|           Mach Number|             -|             -|         -|          0.15|
+------------------------------------------------------------------------------+
Initialize Jacobian structure (Euler). MG level: 0.
Initialize Jacobian structure (Euler). MG level: 1.
Initialize Jacobian structure (Euler). MG level: 2.

------------------- Numerics Preprocessing ( Zone 0 ) -------------------

----------------- Integration Preprocessing ( Zone 0 ) ------------------

------------------- Iteration Preprocessing ( Zone 0 ) ------------------
Euler/Navier-Stokes/RANS fluid iteration.

------------------------------ Begin Solver -----------------------------

Simulation Run using the Single-zone Driver
+----------------------------------------------------------------+
|  Inner_Iter|    rms[Rho]|   rms[RhoE]|          CL|          CD|
+----------------------------------------------------------------+
|           0|   -4.317832|   -3.771814|   -0.368633|    0.953723|
|           1|   -4.441220|   -3.888213|    0.044182|   -0.061723|
|           2|   -4.553587|   -4.003879|    0.092805|   -0.171438|
|           3|   -4.542318|   -3.986328|    0.008292|    0.003546|
|           4|   -4.471172|   -3.922480|   -0.097780|    0.118271|
|           5|   -4.577308|   -4.027710|   -0.072244|    0.056962|
|           6|   -4.559769|   -4.009088|    0.006104|   -0.046460|
|           7|   -4.675979|   -4.128429|    0.000511|   -0.034784|
|           8|   -4.747079|   -4.195937|   -0.046654|    0.041475|
|           9|   -4.816053|   -4.268652|   -0.055839|    0.039444|
|          10|   -5.032145|   -4.479772|   -0.036011|   -0.020651|
|          11|   -4.982734|   -4.433901|   -0.027264|   -0.025807|
|          12|   -5.225852|   -4.677635|   -0.036527|    0.016645|
|          13|   -5.196400|   -4.645120|   -0.046988|    0.023690|
|          14|   -5.307720|   -4.761046|   -0.047751|   -0.008279|
|          15|   -5.454823|   -4.901732|   -0.042784|   -0.018116|
|          16|   -5.439976|   -4.892173|   -0.040232|    0.004824|
|          17|   -5.679944|   -5.130214|   -0.042770|    0.015704|
|          18|   -5.634742|   -5.085051|   -0.047409|    0.000029|
|          19|   -5.783873|   -5.238783|   -0.049327|   -0.010737|
|          20|   -5.800841|   -5.252642|   -0.046857|   -0.001319|
|          21|   -5.846653|   -5.302533|   -0.043910|    0.007782|
|          22|   -5.939785|   -5.390611|   -0.045253|    0.002403|
|          23|   -5.860542|   -5.315675|   -0.049514|   -0.004422|
|          24|   -6.020956|   -5.474692|   -0.050688|   -0.001681|
|          25|   -5.914435|   -5.368348|   -0.047612|    0.003046|
|          26|   -6.048427|   -5.505416|   -0.045887|    0.001687|
|          27|   -6.035711|   -5.490269|   -0.048417|   -0.001638|
|          28|   -6.055440|   -5.513484|   -0.051192|   -0.001101|
|          29|   -6.163055|   -5.622851|   -0.050438|    0.001193|
|          30|   -6.132036|   -5.591978|   -0.048329|    0.001021|
|          31|   -6.245442|   -5.708073|   -0.048422|   -0.000715|
|          32|   -6.243198|   -5.702311|   -0.050295|   -0.000941|
|          33|   -6.274403|   -5.737889|   -0.051222|    0.000276|
|          34|   -6.324636|   -5.791877|   -0.050420|    0.000759|
|          35|   -6.332575|   -5.798591|   -0.049548|   -0.000027|
|          36|   -6.369119|   -5.834047|   -0.049859|   -0.000676|
|          37|   -6.383393|   -5.847817|   -0.050740|   -0.000378|
|          38|   -6.397202|   -5.863447|   -0.051141|    0.000254|
|          39|   -6.416583|   -5.883777|   -0.050821|    0.000318|
|          40|   -6.431462|   -5.898362|   -0.050502|   -0.000126|
|          41|   -6.451027|   -5.917897|   -0.050727|   -0.000363|
|          42|   -6.464494|   -5.931504|   -0.051222|   -0.000148|
|          43|   -6.482961|   -5.950263|   -0.051477|    0.000104|
|          44|   -6.509578|   -5.976794|   -0.051432|    0.000061|
|          45|   -6.527226|   -5.994008|   -0.051407|   -0.000136|
|          46|   -6.549380|   -6.016489|   -0.051619|   -0.000191|
|          47|   -6.572661|   -6.039838|   -0.051944|   -0.000082|
|          48|   -6.591337|   -6.057986|   -0.052147|   -0.000013|
|          49|   -6.614402|   -6.081382|   -0.052212|   -0.000072|
|          50|   -6.632156|   -6.099534|   -0.052276|   -0.000154|
|          51|   -6.648028|   -6.115332|   -0.052426|   -0.000153|
|          52|   -6.669318|   -6.136382|   -0.052627|   -0.000097|
|          53|   -6.689319|   -6.155845|   -0.052791|   -0.000077|
|          54|   -6.706874|   -6.173235|   -0.052888|   -0.000115|
|          55|   -6.723663|   -6.190141|   -0.052961|   -0.000156|
|          56|   -6.740481|   -6.206767|   -0.053060|   -0.000149|
|          57|   -6.759532|   -6.225360|   -0.053191|   -0.000115|
|          58|   -6.779737|   -6.245020|   -0.053323|   -0.000101|
|          59|   -6.799187|   -6.263949|   -0.053435|   -0.000120|
|          60|   -6.818254|   -6.282508|   -0.053530|   -0.000141|
|          61|   -6.837766|   -6.301471|   -0.053628|   -0.000138|
|          62|   -6.858052|   -6.321196|   -0.053739|   -0.000120|
|          63|   -6.879185|   -6.341758|   -0.053862|   -0.000113|
|          64|   -6.901091|   -6.363090|   -0.053986|   -0.000121|
|          65|   -6.923823|   -6.385358|   -0.054102|   -0.000131|
|          66|   -6.946885|   -6.408180|   -0.054212|   -0.000132|
|          67|   -6.969633|   -6.430893|   -0.054321|   -0.000126|
|          68|   -6.992350|   -6.453702|   -0.054433|   -0.000125|
|          69|   -7.015057|   -6.476647|   -0.054546|   -0.000130|
|          70|   -7.037462|   -6.499596|   -0.054655|   -0.000136|
|          71|   -7.059711|   -6.522799|   -0.054758|   -0.000137|
|          72|   -7.081903|   -6.546223|   -0.054854|   -0.000135|
|          73|   -7.104087|   -6.569670|   -0.054947|   -0.000137|
|          74|   -7.126360|   -6.593125|   -0.055041|   -0.000141|
|          75|   -7.148701|   -6.616680|   -0.055133|   -0.000144|
|          76|   -7.171313|   -6.640731|   -0.055221|   -0.000144|
|          77|   -7.194348|   -6.665488|   -0.055305|   -0.000143|
|          78|   -7.217368|   -6.690395|   -0.055387|   -0.000144|
|          79|   -7.239795|   -6.714772|   -0.055471|   -0.000146|
|          80|   -7.261514|   -6.738544|   -0.055555|   -0.000148|
|          81|   -7.282793|   -6.762089|   -0.055638|   -0.000148|
|          82|   -7.303928|   -6.785753|   -0.055719|   -0.000147|
|          83|   -7.325107|   -6.809702|   -0.055801|   -0.000147|
|          84|   -7.346505|   -6.834108|   -0.055884|   -0.000148|
|          85|   -7.368271|   -6.859147|   -0.055968|   -0.000149|
|          86|   -7.390424|   -6.884829|   -0.056051|   -0.000149|
|          87|   -7.412841|   -6.910981|   -0.056134|   -0.000149|
|          88|   -7.435246|   -6.937263|   -0.056216|   -0.000149|
|          89|   -7.457236|   -6.963180|   -0.056298|   -0.000150|
|          90|   -7.478423|   -6.988201|   -0.056379|   -0.000150|
|          91|   -7.498574|   -7.011912|   -0.056459|   -0.000151|
|          92|   -7.517685|   -7.034187|   -0.056537|   -0.000151|
|          93|   -7.535965|   -7.055247|   -0.056612|   -0.000152|
|          94|   -7.553774|   -7.075579|   -0.056687|   -0.000153|
|          95|   -7.571558|   -7.095807|   -0.056760|   -0.000154|
|          96|   -7.589705|   -7.116491|   -0.056831|   -0.000155|
|          97|   -7.608379|   -7.137915|   -0.056901|   -0.000156|
|          98|   -7.627497|   -7.160053|   -0.056968|   -0.000157|
|          99|   -7.646856|   -7.182697|   -0.057035|   -0.000158|
|         100|   -7.666227|   -7.205551|   -0.057100|   -0.000158|
|         101|   -7.685373|   -7.228265|   -0.057163|   -0.000159|
|         102|   -7.704077|   -7.250500|   -0.057226|   -0.000160|
|         103|   -7.722236|   -7.272079|   -0.057287|   -0.000161|
|         104|   -7.739913|   -7.293077|   -0.057347|   -0.000161|
|         105|   -7.757287|   -7.313760|   -0.057407|   -0.000162|
|         106|   -7.774542|   -7.334429|   -0.057465|   -0.000163|
|         107|   -7.791780|   -7.355290|   -0.057523|   -0.000163|
|         108|   -7.808980|   -7.376361|   -0.057580|   -0.000164|
|         109|   -7.826008|   -7.397452|   -0.057635|   -0.000164|
|         110|   -7.842659|   -7.418214|   -0.057690|   -0.000164|
|         111|   -7.858726|   -7.438245|   -0.057744|   -0.000165|
|         112|   -7.874070|   -7.457221|   -0.057796|   -0.000165|
|         113|   -7.888666|   -7.475012|   -0.057847|   -0.000166|
|         114|   -7.902618|   -7.491734|   -0.057896|   -0.000166|
|         115|   -7.916128|   -7.507708|   -0.057944|   -0.000166|
|         116|   -7.929429|   -7.523360|   -0.057990|   -0.000167|
|         117|   -7.942722|   -7.539102|   -0.058035|   -0.000167|
|         118|   -7.956132|   -7.555237|   -0.058078|   -0.000168|
|         119|   -7.969691|   -7.571898|   -0.058120|   -0.000168|
|         120|   -7.983328|   -7.589031|   -0.058161|   -0.000169|
|         121|   -7.996907|   -7.606431|   -0.058200|   -0.000169|
|         122|   -8.010272|   -7.623824|   -0.058238|   -0.000170|
|         123|   -8.023296|   -7.640957|   -0.058274|   -0.000170|
|         124|   -8.035905|   -7.657660|   -0.058310|   -0.000171|
|         125|   -8.048080|   -7.673861|   -0.058345|   -0.000171|
|         126|   -8.059841|   -7.689566|   -0.058378|   -0.000172|
|         127|   -8.071224|   -7.704819|   -0.058411|   -0.000172|
|         128|   -8.082255|   -7.719646|   -0.058443|   -0.000173|
|         129|   -8.092940|   -7.734027|   -0.058474|   -0.000173|
|         130|   -8.103265|   -7.747889|   -0.058505|   -0.000174|
|         131|   -8.113206|   -7.761127|   -0.058534|   -0.000174|
|         132|   -8.122747|   -7.773638|   -0.058564|   -0.000174|
|         133|   -8.131900|   -7.785369|   -0.058592|   -0.000175|
|         134|   -8.140705|   -7.796341|   -0.058620|   -0.000175|
|         135|   -8.149236|   -7.806658|   -0.058647|   -0.000175|
|         136|   -8.157584|   -7.816485|   -0.058673|   -0.000176|
|         137|   -8.165844|   -7.826017|   -0.058699|   -0.000176|
|         138|   -8.174096|   -7.835437|   -0.058725|   -0.000176|
|         139|   -8.182399|   -7.844886|   -0.058749|   -0.000176|
|         140|   -8.190778|   -7.854448|   -0.058773|   -0.000177|
|         141|   -8.199233|   -7.864144|   -0.058797|   -0.000177|
|         142|   -8.207740|   -7.873951|   -0.058820|   -0.000177|
|         143|   -8.216266|   -7.883816|   -0.058842|   -0.000177|
|         144|   -8.224777|   -7.893678|   -0.058864|   -0.000177|
|         145|   -8.233245|   -7.903484|   -0.058886|   -0.000178|
|         146|   -8.241651|   -7.913193|   -0.058907|   -0.000178|
|         147|   -8.249986|   -7.922778|   -0.058928|   -0.000178|
|         148|   -8.258243|   -7.932214|   -0.058948|   -0.000178|
|         149|   -8.266421|   -7.941475|   -0.058968|   -0.000178|
|         150|   -8.274511|   -7.950528|   -0.058988|   -0.000178|
|         151|   -8.282506|   -7.959334|   -0.059007|   -0.000179|
|         152|   -8.290396|   -7.967857|   -0.059026|   -0.000179|
|         153|   -8.298171|   -7.976071|   -0.059045|   -0.000179|
|         154|   -8.305828|   -7.983969|   -0.059063|   -0.000179|
|         155|   -8.313368|   -7.991567|   -0.059081|   -0.000179|
|         156|   -8.320801|   -7.998908|   -0.059098|   -0.000179|
|         157|   -8.328142|   -8.006050|   -0.059116|   -0.000179|
|         158|   -8.335410|   -8.013058|   -0.059133|   -0.000179|
|         159|   -8.342623|   -8.019995|   -0.059149|   -0.000179|
|         160|   -8.349795|   -8.026913|   -0.059165|   -0.000180|
|         161|   -8.356936|   -8.033844|   -0.059181|   -0.000180|
|         162|   -8.364050|   -8.040802|   -0.059197|   -0.000180|
|         163|   -8.371133|   -8.047784|   -0.059212|   -0.000180|
|         164|   -8.378178|   -8.054777|   -0.059227|   -0.000180|
|         165|   -8.385176|   -8.061760|   -0.059242|   -0.000180|
|         166|   -8.392118|   -8.068712|   -0.059256|   -0.000180|
|         167|   -8.398994|   -8.075618|   -0.059270|   -0.000180|
|         168|   -8.405799|   -8.082465|   -0.059284|   -0.000180|
|         169|   -8.412529|   -8.089247|   -0.059298|   -0.000180|
|         170|   -8.419180|   -8.095960|   -0.059311|   -0.000180|
|         171|   -8.425753|   -8.102602|   -0.059325|   -0.000180|
|         172|   -8.432248|   -8.109174|   -0.059338|   -0.000180|
|         173|   -8.438663|   -8.115674|   -0.059350|   -0.000180|
|         174|   -8.445001|   -8.122103|   -0.059363|   -0.000180|
|         175|   -8.451263|   -8.128464|   -0.059375|   -0.000180|
|         176|   -8.457452|   -8.134763|   -0.059388|   -0.000180|
|         177|   -8.463570|   -8.141010|   -0.059400|   -0.000180|
|         178|   -8.469624|   -8.147219|   -0.059411|   -0.000180|
|         179|   -8.475619|   -8.153406|   -0.059423|   -0.000180|
|         180|   -8.481562|   -8.159590|   -0.059434|   -0.000180|
|         181|   -8.487460|   -8.165789|   -0.059446|   -0.000180|
|         182|   -8.493319|   -8.172017|   -0.059457|   -0.000180|
|         183|   -8.499142|   -8.178286|   -0.059467|   -0.000180|
|         184|   -8.504933|   -8.184603|   -0.059478|   -0.000180|
|         185|   -8.510693|   -8.190967|   -0.059488|   -0.000180|
|         186|   -8.516423|   -8.197377|   -0.059499|   -0.000180|
|         187|   -8.522120|   -8.203825|   -0.059509|   -0.000180|
|         188|   -8.527783|   -8.210305|   -0.059518|   -0.000180|
|         189|   -8.533410|   -8.216808|   -0.059528|   -0.000180|
|         190|   -8.539000|   -8.223324|   -0.059538|   -0.000180|
|         191|   -8.544551|   -8.229847|   -0.059547|   -0.000180|
|         192|   -8.550063|   -8.236370|   -0.059556|   -0.000180|
|         193|   -8.555537|   -8.242891|   -0.059565|   -0.000180|
|         194|   -8.560974|   -8.249407|   -0.059574|   -0.000180|
|         195|   -8.566375|   -8.255918|   -0.059583|   -0.000180|
|         196|   -8.571744|   -8.262426|   -0.059591|   -0.000180|
|         197|   -8.577084|   -8.268935|   -0.059599|   -0.000180|
|         198|   -8.582398|   -8.275448|   -0.059608|   -0.000180|
|         199|   -8.587690|   -8.281973|   -0.059616|   -0.000180|
|         200|   -8.592965|   -8.288515|   -0.059624|   -0.000180|
|         201|   -8.598226|   -8.295083|   -0.059631|   -0.000180|
|         202|   -8.603479|   -8.301682|   -0.059639|   -0.000180|
|         203|   -8.608727|   -8.308321|   -0.059647|   -0.000180|
|         204|   -8.613975|   -8.315004|   -0.059654|   -0.000180|
|         205|   -8.619225|   -8.321738|   -0.059661|   -0.000180|
|         206|   -8.624481|   -8.328525|   -0.059668|   -0.000180|
|         207|   -8.629745|   -8.335367|   -0.059675|   -0.000180|
|         208|   -8.635020|   -8.342264|   -0.059682|   -0.000180|
|         209|   -8.640306|   -8.349215|   -0.059689|   -0.000180|
|         210|   -8.645606|   -8.356217|   -0.059696|   -0.000180|
|         211|   -8.650919|   -8.363268|   -0.059702|   -0.000179|
|         212|   -8.656248|   -8.370364|   -0.059709|   -0.000179|
|         213|   -8.661591|   -8.377502|   -0.059715|   -0.000179|
|         214|   -8.666952|   -8.384677|   -0.059721|   -0.000179|
|         215|   -8.672329|   -8.391888|   -0.059727|   -0.000179|
|         216|   -8.677726|   -8.399132|   -0.059733|   -0.000179|
|         217|   -8.683143|   -8.406407|   -0.059739|   -0.000179|
|         218|   -8.688581|   -8.413714|   -0.059744|   -0.000179|
|         219|   -8.694043|   -8.421053|   -0.059750|   -0.000179|
|         220|   -8.699531|   -8.428424|   -0.059756|   -0.000179|
|         221|   -8.705047|   -8.435829|   -0.059761|   -0.000179|
|         222|   -8.710592|   -8.443271|   -0.059766|   -0.000179|
|         223|   -8.716170|   -8.450752|   -0.059771|   -0.000179|
|         224|   -8.721781|   -8.458274|   -0.059777|   -0.000179|
|         225|   -8.727429|   -8.465839|   -0.059782|   -0.000179|
|         226|   -8.733114|   -8.473449|   -0.059787|   -0.000179|
|         227|   -8.738839|   -8.481105|   -0.059791|   -0.000179|
|         228|   -8.744604|   -8.488809|   -0.059796|   -0.000179|
|         229|   -8.750410|   -8.496561|   -0.059801|   -0.000179|
|         230|   -8.756259|   -8.504360|   -0.059805|   -0.000179|
|         231|   -8.762152|   -8.512206|   -0.059810|   -0.000179|
|         232|   -8.768088|   -8.520100|   -0.059814|   -0.000179|
|         233|   -8.774068|   -8.528038|   -0.059819|   -0.000179|
|         234|   -8.780093|   -8.536021|   -0.059823|   -0.000178|
|         235|   -8.786162|   -8.544046|   -0.059827|   -0.000178|
|         236|   -8.792275|   -8.552113|   -0.059831|   -0.000178|
|         237|   -8.798434|   -8.560220|   -0.059835|   -0.000178|
|         238|   -8.804638|   -8.568366|   -0.059839|   -0.000178|
|         239|   -8.810888|   -8.576551|   -0.059843|   -0.000178|
|         240|   -8.817183|   -8.584774|   -0.059847|   -0.000178|
|         241|   -8.823525|   -8.593036|   -0.059850|   -0.000178|
|         242|   -8.829913|   -8.601335|   -0.059854|   -0.000178|
|         243|   -8.836349|   -8.609674|   -0.059858|   -0.000178|
|         244|   -8.842833|   -8.618052|   -0.059861|   -0.000178|
|         245|   -8.849364|   -8.626469|   -0.059865|   -0.000178|
|         246|   -8.855945|   -8.634928|   -0.059868|   -0.000178|
|         247|   -8.862575|   -8.643429|   -0.059871|   -0.000178|
|         248|   -8.869255|   -8.651972|   -0.059875|   -0.000178|
|         249|   -8.875985|   -8.660557|   -0.059878|   -0.000178|
|         250|   -8.882766|   -8.669185|   -0.059881|   -0.000178|
+-----------------------------------------------------------------------+
|        File Writing Summary       |              Filename             |
+-----------------------------------------------------------------------+
|SU2 restart                        |restart_flow.dat                   |
|Paraview                           |flow.vtu                           |
|Paraview surface                   |surface_flow.vtu                   |
|CSV file                           |surface_flow.csv                   |
+-----------------------------------------------------------------------+
+----------------------------------------------------------------+
|  Inner_Iter|    rms[Rho]|   rms[RhoE]|          CL|          CD|
+----------------------------------------------------------------+
|         251|   -8.889598|   -8.677857|   -0.059884|   -0.000178|
|         252|   -8.896481|   -8.686571|   -0.059887|   -0.000178|
|         253|   -8.903416|   -8.695328|   -0.059890|   -0.000178|
|         254|   -8.910401|   -8.704127|   -0.059893|   -0.000178|
|         255|   -8.917438|   -8.712967|   -0.059896|   -0.000178|
|         256|   -8.924526|   -8.721848|   -0.059898|   -0.000178|
|         257|   -8.931665|   -8.730769|   -0.059901|   -0.000178|
|         258|   -8.938856|   -8.739729|   -0.059904|   -0.000178|
|         259|   -8.946097|   -8.748728|   -0.059907|   -0.000178|
|         260|   -8.953389|   -8.757765|   -0.059909|   -0.000178|
|         261|   -8.960732|   -8.766839|   -0.059912|   -0.000177|
|         262|   -8.968126|   -8.775951|   -0.059914|   -0.000177|
|         263|   -8.975571|   -8.785099|   -0.059917|   -0.000177|
|         264|   -8.983066|   -8.794285|   -0.059919|   -0.000177|
|         265|   -8.990613|   -8.803509|   -0.059921|   -0.000177|
|         266|   -8.998210|   -8.812769|   -0.059924|   -0.000177|
|         267|   -9.005859|   -8.822067|   -0.059926|   -0.000177|
|         268|   -9.013558|   -8.831403|   -0.059928|   -0.000177|
|         269|   -9.021309|   -8.840777|   -0.059930|   -0.000177|
|         270|   -9.029111|   -8.850190|   -0.059933|   -0.000177|
|         271|   -9.036965|   -8.859640|   -0.059935|   -0.000177|
|         272|   -9.044869|   -8.869129|   -0.059937|   -0.000177|
|         273|   -9.052825|   -8.878657|   -0.059939|   -0.000177|
|         274|   -9.060833|   -8.888222|   -0.059941|   -0.000177|
|         275|   -9.068891|   -8.897826|   -0.059943|   -0.000177|
|         276|   -9.077001|   -8.907467|   -0.059945|   -0.000177|
|         277|   -9.085161|   -8.917145|   -0.059946|   -0.000177|
|         278|   -9.093373|   -8.926859|   -0.059948|   -0.000177|
|         279|   -9.101635|   -8.936610|   -0.059950|   -0.000177|
|         280|   -9.109947|   -8.946396|   -0.059952|   -0.000177|
|         281|   -9.118310|   -8.956217|   -0.059954|   -0.000177|
|         282|   -9.126723|   -8.966073|   -0.059955|   -0.000177|
|         283|   -9.135186|   -8.975963|   -0.059957|   -0.000177|
|         284|   -9.143700|   -8.985887|   -0.059959|   -0.000177|
|         285|   -9.152262|   -8.995845|   -0.059960|   -0.000177|
|         286|   -9.160875|   -9.005836|   -0.059962|   -0.000177|
|         287|   -9.169536|   -9.015860|   -0.059963|   -0.000177|
|         288|   -9.178248|   -9.025918|   -0.059965|   -0.000177|
|         289|   -9.187008|   -9.036009|   -0.059966|   -0.000177|
|         290|   -9.195818|   -9.046133|   -0.059968|   -0.000177|
|         291|   -9.204677|   -9.056290|   -0.059969|   -0.000177|
|         292|   -9.213585|   -9.066481|   -0.059970|   -0.000177|
|         293|   -9.222542|   -9.076704|   -0.059972|   -0.000177|
|         294|   -9.231548|   -9.086960|   -0.059973|   -0.000177|
|         295|   -9.240603|   -9.097249|   -0.059975|   -0.000177|
|         296|   -9.249706|   -9.107570|   -0.059976|   -0.000177|
|         297|   -9.258858|   -9.117924|   -0.059977|   -0.000177|
|         298|   -9.268058|   -9.128310|   -0.059978|   -0.000177|
|         299|   -9.277307|   -9.138727|   -0.059980|   -0.000177|
|         300|   -9.286604|   -9.149175|   -0.059981|   -0.000177|
|         301|   -9.295948|   -9.159655|   -0.059982|   -0.000177|
|         302|   -9.305341|   -9.170165|   -0.059983|   -0.000177|
|         303|   -9.314781|   -9.180704|   -0.059984|   -0.000177|
|         304|   -9.324268|   -9.191274|   -0.059985|   -0.000177|
|         305|   -9.333803|   -9.201873|   -0.059986|   -0.000177|
|         306|   -9.343384|   -9.212501|   -0.059987|   -0.000177|
|         307|   -9.353012|   -9.223157|   -0.059988|   -0.000177|
|         308|   -9.362687|   -9.233842|   -0.059989|   -0.000177|
|         309|   -9.372409|   -9.244555|   -0.059990|   -0.000177|
|         310|   -9.382177|   -9.255295|   -0.059991|   -0.000177|
|         311|   -9.391991|   -9.266064|   -0.059992|   -0.000176|
|         312|   -9.401851|   -9.276859|   -0.059993|   -0.000176|
|         313|   -9.411757|   -9.287682|   -0.059994|   -0.000176|
|         314|   -9.421709|   -9.298531|   -0.059995|   -0.000176|
|         315|   -9.431707|   -9.309407|   -0.059996|   -0.000176|
|         316|   -9.441750|   -9.320309|   -0.059997|   -0.000176|
|         317|   -9.451838|   -9.331238|   -0.059998|   -0.000176|
|         318|   -9.461972|   -9.342192|   -0.059999|   -0.000176|
|         319|   -9.472151|   -9.353171|   -0.059999|   -0.000176|
|         320|   -9.482374|   -9.364176|   -0.060000|   -0.000176|
|         321|   -9.492643|   -9.375205|   -0.060001|   -0.000176|
|         322|   -9.502956|   -9.386259|   -0.060002|   -0.000176|
|         323|   -9.513313|   -9.397336|   -0.060003|   -0.000176|
|         324|   -9.523715|   -9.408437|   -0.060003|   -0.000176|
|         325|   -9.534161|   -9.419561|   -0.060004|   -0.000176|
|         326|   -9.544650|   -9.430707|   -0.060005|   -0.000176|
|         327|   -9.555184|   -9.441876|   -0.060005|   -0.000176|
|         328|   -9.565761|   -9.453067|   -0.060006|   -0.000176|
|         329|   -9.576381|   -9.464279|   -0.060007|   -0.000176|
|         330|   -9.587045|   -9.475512|   -0.060008|   -0.000176|
|         331|   -9.597752|   -9.486766|   -0.060008|   -0.000176|
|         332|   -9.608501|   -9.498040|   -0.060009|   -0.000176|
|         333|   -9.619294|   -9.509334|   -0.060009|   -0.000176|
|         334|   -9.630129|   -9.520648|   -0.060010|   -0.000176|
|         335|   -9.641006|   -9.531980|   -0.060011|   -0.000176|
|         336|   -9.651926|   -9.543331|   -0.060011|   -0.000176|
|         337|   -9.662887|   -9.554700|   -0.060012|   -0.000176|
|         338|   -9.673891|   -9.566087|   -0.060012|   -0.000176|
|         339|   -9.684936|   -9.577491|   -0.060013|   -0.000176|
|         340|   -9.696022|   -9.588912|   -0.060013|   -0.000176|
|         341|   -9.707150|   -9.600348|   -0.060014|   -0.000176|
|         342|   -9.718320|   -9.611801|   -0.060015|   -0.000176|
|         343|   -9.729530|   -9.623269|   -0.060015|   -0.000176|
|         344|   -9.740781|   -9.634752|   -0.060016|   -0.000176|
|         345|   -9.752073|   -9.646248|   -0.060016|   -0.000176|
|         346|   -9.763405|   -9.657759|   -0.060017|   -0.000176|
|         347|   -9.774778|   -9.669282|   -0.060017|   -0.000176|
|         348|   -9.786190|   -9.680818|   -0.060017|   -0.000176|
|         349|   -9.797643|   -9.692366|   -0.060018|   -0.000176|
|         350|   -9.809135|   -9.703926|   -0.060018|   -0.000176|
|         351|   -9.820667|   -9.715496|   -0.060019|   -0.000176|
|         352|   -9.832238|   -9.727077|   -0.060019|   -0.000176|
|         353|   -9.843849|   -9.738667|   -0.060020|   -0.000176|
|         354|   -9.855498|   -9.750267|   -0.060020|   -0.000176|
|         355|   -9.867186|   -9.761875|   -0.060021|   -0.000176|
|         356|   -9.878913|   -9.773492|   -0.060021|   -0.000176|
|         357|   -9.890678|   -9.785115|   -0.060021|   -0.000176|
|         358|   -9.902481|   -9.796745|   -0.060022|   -0.000176|
|         359|   -9.914323|   -9.808382|   -0.060022|   -0.000176|
|         360|   -9.926202|   -9.820024|   -0.060022|   -0.000176|
|         361|   -9.938118|   -9.831670|   -0.060023|   -0.000176|
|         362|   -9.950072|   -9.843321|   -0.060023|   -0.000176|
|         363|   -9.962064|   -9.854975|   -0.060024|   -0.000176|
|         364|   -9.974092|   -9.866632|   -0.060024|   -0.000176|
|         365|   -9.986156|   -9.878291|   -0.060024|   -0.000176|
|         366|   -9.998257|   -9.889951|   -0.060025|   -0.000176|
|         367|  -10.010395|   -9.901612|   -0.060025|   -0.000176|
|         368|  -10.022568|   -9.913272|   -0.060025|   -0.000176|
|         369|  -10.034777|   -9.924931|   -0.060026|   -0.000176|
|         370|  -10.047022|   -9.936589|   -0.060026|   -0.000176|
|         371|  -10.059302|   -9.948244|   -0.060026|   -0.000176|
|         372|  -10.071617|   -9.959896|   -0.060026|   -0.000176|
|         373|  -10.083966|   -9.971545|   -0.060027|   -0.000176|
|         374|  -10.096350|   -9.983188|   -0.060027|   -0.000176|
|         375|  -10.108769|   -9.994826|   -0.060027|   -0.000176|
|         376|  -10.121221|  -10.006457|   -0.060028|   -0.000176|
|         377|  -10.133707|  -10.018081|   -0.060028|   -0.000176|
|         378|  -10.146226|  -10.029698|   -0.060028|   -0.000176|
|         379|  -10.158778|  -10.041306|   -0.060028|   -0.000176|
|         380|  -10.171363|  -10.052904|   -0.060029|   -0.000176|
|         381|  -10.183980|  -10.064492|   -0.060029|   -0.000176|
|         382|  -10.196630|  -10.076069|   -0.060029|   -0.000176|
|         383|  -10.209311|  -10.087633|   -0.060029|   -0.000176|
|         384|  -10.222024|  -10.099185|   -0.060030|   -0.000176|
|         385|  -10.234768|  -10.110724|   -0.060030|   -0.000176|
|         386|  -10.247543|  -10.122248|   -0.060030|   -0.000176|
|         387|  -10.260348|  -10.133756|   -0.060030|   -0.000176|
|         388|  -10.273183|  -10.145249|   -0.060030|   -0.000176|
|         389|  -10.286048|  -10.156724|   -0.060031|   -0.000176|
|         390|  -10.298942|  -10.168182|   -0.060031|   -0.000176|
|         391|  -10.311865|  -10.179621|   -0.060031|   -0.000176|
|         392|  -10.324816|  -10.191041|   -0.060031|   -0.000176|
|         393|  -10.337796|  -10.202440|   -0.060032|   -0.000176|
|         394|  -10.350803|  -10.213818|   -0.060032|   -0.000176|
|         395|  -10.363837|  -10.225175|   -0.060032|   -0.000176|
|         396|  -10.376899|  -10.236508|   -0.060032|   -0.000176|
|         397|  -10.389986|  -10.247818|   -0.060032|   -0.000176|
|         398|  -10.403099|  -10.259104|   -0.060032|   -0.000176|
|         399|  -10.416237|  -10.270364|   -0.060033|   -0.000176|
|         400|  -10.429400|  -10.281598|   -0.060033|   -0.000176|
|         401|  -10.442588|  -10.292806|   -0.060033|   -0.000176|
|         402|  -10.455799|  -10.303986|   -0.060033|   -0.000176|
|         403|  -10.469033|  -10.315138|   -0.060033|   -0.000176|
|         404|  -10.482290|  -10.326261|   -0.060034|   -0.000176|
|         405|  -10.495569|  -10.337354|   -0.060034|   -0.000176|
|         406|  -10.508869|  -10.348417|   -0.060034|   -0.000176|
|         407|  -10.522190|  -10.359448|   -0.060034|   -0.000176|
|         408|  -10.535531|  -10.370449|   -0.060034|   -0.000176|
|         409|  -10.548892|  -10.381417|   -0.060034|   -0.000176|
|         410|  -10.562272|  -10.392352|   -0.060034|   -0.000176|
|         411|  -10.575670|  -10.403252|   -0.060035|   -0.000176|
|         412|  -10.589085|  -10.414120|   -0.060035|   -0.000176|
|         413|  -10.602517|  -10.424952|   -0.060035|   -0.000176|
|         414|  -10.615965|  -10.435750|   -0.060035|   -0.000176|
|         415|  -10.629429|  -10.446511|   -0.060035|   -0.000176|
|         416|  -10.642907|  -10.457236|   -0.060035|   -0.000176|
|         417|  -10.656399|  -10.467924|   -0.060035|   -0.000176|
|         418|  -10.669903|  -10.478575|   -0.060036|   -0.000176|
|         419|  -10.683420|  -10.489189|   -0.060036|   -0.000176|
|         420|  -10.696948|  -10.499764|   -0.060036|   -0.000176|
|         421|  -10.710486|  -10.510302|   -0.060036|   -0.000176|
|         422|  -10.724034|  -10.520801|   -0.060036|   -0.000176|
|         423|  -10.737590|  -10.531260|   -0.060036|   -0.000176|
|         424|  -10.751154|  -10.541680|   -0.060036|   -0.000176|
|         425|  -10.764725|  -10.552061|   -0.060036|   -0.000176|
|         426|  -10.778301|  -10.562401|   -0.060036|   -0.000176|
|         427|  -10.791882|  -10.572702|   -0.060037|   -0.000176|
|         428|  -10.805466|  -10.582963|   -0.060037|   -0.000176|
|         429|  -10.819053|  -10.593183|   -0.060037|   -0.000176|
|         430|  -10.832642|  -10.603362|   -0.060037|   -0.000176|
|         431|  -10.846231|  -10.613502|   -0.060037|   -0.000176|
|         432|  -10.859819|  -10.623601|   -0.060037|   -0.000176|
|         433|  -10.873405|  -10.633659|   -0.060037|   -0.000176|
|         434|  -10.886989|  -10.643677|   -0.060037|   -0.000176|
|         435|  -10.900568|  -10.653654|   -0.060037|   -0.000176|
|         436|  -10.914142|  -10.663592|   -0.060037|   -0.000176|
|         437|  -10.927709|  -10.673488|   -0.060038|   -0.000176|
|         438|  -10.941269|  -10.683344|   -0.060038|   -0.000176|
|         439|  -10.954820|  -10.693161|   -0.060038|   -0.000176|
|         440|  -10.968360|  -10.702937|   -0.060038|   -0.000176|
|         441|  -10.981888|  -10.712675|   -0.060038|   -0.000176|
|         442|  -10.995404|  -10.722371|   -0.060038|   -0.000176|
|         443|  -11.008905|  -10.732029|   -0.060038|   -0.000176|
|         444|  -11.022391|  -10.741649|   -0.060038|   -0.000176|
|         445|  -11.035860|  -10.751231|   -0.060038|   -0.000176|
|         446|  -11.049310|  -10.760772|   -0.060038|   -0.000176|
|         447|  -11.062741|  -10.770277|   -0.060038|   -0.000176|
|         448|  -11.076150|  -10.779743|   -0.060038|   -0.000176|
|         449|  -11.089537|  -10.789173|   -0.060039|   -0.000176|
|         450|  -11.102900|  -10.798565|   -0.060039|   -0.000176|
|         451|  -11.116237|  -10.807920|   -0.060039|   -0.000176|
|         452|  -11.129547|  -10.817241|   -0.060039|   -0.000176|
|         453|  -11.142830|  -10.826526|   -0.060039|   -0.000176|
|         454|  -11.156082|  -10.835774|   -0.060039|   -0.000176|
|         455|  -11.169303|  -10.844989|   -0.060039|   -0.000176|
|         456|  -11.182492|  -10.854169|   -0.060039|   -0.000176|
|         457|  -11.195646|  -10.863316|   -0.060039|   -0.000176|
|         458|  -11.208765|  -10.872430|   -0.060039|   -0.000176|
|         459|  -11.221846|  -10.881509|   -0.060039|   -0.000176|
|         460|  -11.234889|  -10.890558|   -0.060039|   -0.000176|
|         461|  -11.247893|  -10.899576|   -0.060039|   -0.000176|
|         462|  -11.260855|  -10.908562|   -0.060039|   -0.000176|
|         463|  -11.273774|  -10.917517|   -0.060039|   -0.000176|
|         464|  -11.286649|  -10.926442|   -0.060040|   -0.000176|
|         465|  -11.299478|  -10.935338|   -0.060040|   -0.000176|
|         466|  -11.312261|  -10.944205|   -0.060040|   -0.000176|
|         467|  -11.324995|  -10.953043|   -0.060040|   -0.000176|
|         468|  -11.337681|  -10.961855|   -0.060040|   -0.000176|
|         469|  -11.350314|  -10.970637|   -0.060040|   -0.000176|
|         470|  -11.362897|  -10.979396|   -0.060040|   -0.000176|
|         471|  -11.375426|  -10.988127|   -0.060040|   -0.000176|
|         472|  -11.387901|  -10.996832|   -0.060040|   -0.000176|
|         473|  -11.400320|  -11.005512|   -0.060040|   -0.000176|
|         474|  -11.412682|  -11.014168|   -0.060040|   -0.000176|
|         475|  -11.424987|  -11.022801|   -0.060040|   -0.000176|
|         476|  -11.437234|  -11.031410|   -0.060040|   -0.000176|
|         477|  -11.449420|  -11.039995|   -0.060040|   -0.000176|
|         478|  -11.461546|  -11.048560|   -0.060040|   -0.000176|
|         479|  -11.473610|  -11.057102|   -0.060040|   -0.000176|
|         480|  -11.485613|  -11.065624|   -0.060040|   -0.000176|
|         481|  -11.497553|  -11.074126|   -0.060040|   -0.000176|
|         482|  -11.509428|  -11.082606|   -0.060040|   -0.000176|
|         483|  -11.521240|  -11.091069|   -0.060040|   -0.000176|
|         484|  -11.532986|  -11.099511|   -0.060040|   -0.000176|
|         485|  -11.544668|  -11.107936|   -0.060040|   -0.000176|
|         486|  -11.556283|  -11.116342|   -0.060041|   -0.000176|
|         487|  -11.567831|  -11.124730|   -0.060041|   -0.000176|
|         488|  -11.579314|  -11.133101|   -0.060041|   -0.000176|
|         489|  -11.590729|  -11.141457|   -0.060041|   -0.000176|
|         490|  -11.602078|  -11.149797|   -0.060041|   -0.000176|
|         491|  -11.613359|  -11.158121|   -0.060041|   -0.000176|
|         492|  -11.624573|  -11.166431|   -0.060041|   -0.000176|
|         493|  -11.635719|  -11.174725|   -0.060041|   -0.000176|
|         494|  -11.646800|  -11.183007|   -0.060041|   -0.000176|
|         495|  -11.657809|  -11.191271|   -0.060041|   -0.000176|
|         496|  -11.668755|  -11.199526|   -0.060041|   -0.000176|
|         497|  -11.679634|  -11.207768|   -0.060041|   -0.000176|
|         498|  -11.690444|  -11.215995|   -0.060041|   -0.000176|
|         499|  -11.701188|  -11.224210|   -0.060041|   -0.000176|
|         500|  -11.711868|  -11.232417|   -0.060041|   -0.000176|
+-----------------------------------------------------------------------+
|        File Writing Summary       |              Filename             |
+-----------------------------------------------------------------------+
|SU2 restart                        |restart_flow.dat                   |
|Paraview                           |flow.vtu                           |
|Paraview surface                   |surface_flow.vtu                   |
|CSV file                           |surface_flow.csv                   |
+-----------------------------------------------------------------------+
+----------------------------------------------------------------+
|  Inner_Iter|    rms[Rho]|   rms[RhoE]|          CL|          CD|
+----------------------------------------------------------------+
|         501|  -11.722483|  -11.240612|   -0.060041|   -0.000176|
|         502|  -11.733031|  -11.248793|   -0.060041|   -0.000176|
|         503|  -11.743516|  -11.256966|   -0.060041|   -0.000176|
|         504|  -11.753936|  -11.265128|   -0.060041|   -0.000176|
|         505|  -11.764293|  -11.273281|   -0.060041|   -0.000176|
|         506|  -11.774589|  -11.281425|   -0.060041|   -0.000176|
|         507|  -11.784822|  -11.289558|   -0.060041|   -0.000176|
|         508|  -11.794995|  -11.297685|   -0.060041|   -0.000176|
|         509|  -11.805108|  -11.305804|   -0.060041|   -0.000176|
|         510|  -11.815161|  -11.313912|   -0.060041|   -0.000176|
|         511|  -11.825157|  -11.322015|   -0.060041|   -0.000176|
|         512|  -11.835093|  -11.330109|   -0.060041|   -0.000176|
|         513|  -11.844975|  -11.338199|   -0.060041|   -0.000176|
|         514|  -11.854798|  -11.346277|   -0.060041|   -0.000176|
|         515|  -11.864571|  -11.354353|   -0.060041|   -0.000176|
|         516|  -11.874286|  -11.362421|   -0.060041|   -0.000176|
|         517|  -11.883952|  -11.370483|   -0.060041|   -0.000176|
|         518|  -11.893563|  -11.378539|   -0.060041|   -0.000176|
|         519|  -11.903127|  -11.386592|   -0.060041|   -0.000176|
|         520|  -11.912639|  -11.394637|   -0.060041|   -0.000176|
|         521|  -11.922103|  -11.402678|   -0.060042|   -0.000176|
|         522|  -11.931520|  -11.410714|   -0.060042|   -0.000176|
|         523|  -11.940892|  -11.418747|   -0.060042|   -0.000176|
|         524|  -11.950215|  -11.426774|   -0.060042|   -0.000176|
|         525|  -11.959501|  -11.434802|   -0.060042|   -0.000176|
|         526|  -11.968739|  -11.442820|   -0.060042|   -0.000176|
|         527|  -11.977935|  -11.450836|   -0.060042|   -0.000176|
|         528|  -11.987094|  -11.458850|   -0.060042|   -0.000176|
|         529|  -11.996209|  -11.466861|   -0.060042|   -0.000176|
|         530|  -12.005287|  -11.474867|   -0.060042|   -0.000176|
|         531|  -12.014328|  -11.482872|   -0.060042|   -0.000176|
|         532|  -12.023333|  -11.490875|   -0.060042|   -0.000176|
|         533|  -12.032302|  -11.498876|   -0.060042|   -0.000176|
|         534|  -12.041237|  -11.506873|   -0.060042|   -0.000176|
|         535|  -12.050141|  -11.514870|   -0.060042|   -0.000176|
|         536|  -12.059006|  -11.522861|   -0.060042|   -0.000176|
|         537|  -12.067842|  -11.530850|   -0.060042|   -0.000176|
|         538|  -12.076650|  -11.538842|   -0.060042|   -0.000176|
|         539|  -12.085427|  -11.546830|   -0.060042|   -0.000176|
|         540|  -12.094181|  -11.554820|   -0.060042|   -0.000176|
|         541|  -12.102905|  -11.562809|   -0.060042|   -0.000176|
|         542|  -12.111598|  -11.570790|   -0.060042|   -0.000176|
|         543|  -12.120269|  -11.578777|   -0.060042|   -0.000176|
|         544|  -12.128911|  -11.586757|   -0.060042|   -0.000176|
|         545|  -12.137534|  -11.594742|   -0.060042|   -0.000176|
|         546|  -12.146130|  -11.602722|   -0.060042|   -0.000176|
|         547|  -12.154707|  -11.610704|   -0.060042|   -0.000176|
|         548|  -12.163260|  -11.618684|   -0.060042|   -0.000176|
|         549|  -12.171794|  -11.626667|   -0.060042|   -0.000176|
|         550|  -12.180308|  -11.634649|   -0.060042|   -0.000176|
|         551|  -12.188804|  -11.642631|   -0.060042|   -0.000176|
|         552|  -12.197280|  -11.650611|   -0.060042|   -0.000176|
|         553|  -12.205741|  -11.658596|   -0.060042|   -0.000176|
|         554|  -12.214181|  -11.666575|   -0.060042|   -0.000176|
|         555|  -12.222600|  -11.674551|   -0.060042|   -0.000176|
|         556|  -12.231016|  -11.682542|   -0.060042|   -0.000176|
|         557|  -12.239408|  -11.690521|   -0.060042|   -0.000176|
|         558|  -12.247792|  -11.698511|   -0.060042|   -0.000176|
|         559|  -12.256156|  -11.706491|   -0.060042|   -0.000176|
|         560|  -12.264510|  -11.714479|   -0.060042|   -0.000176|
|         561|  -12.272842|  -11.722455|   -0.060042|   -0.000176|
|         562|  -12.281172|  -11.730445|   -0.060042|   -0.000176|
|         563|  -12.289490|  -11.738432|   -0.060042|   -0.000176|
|         564|  -12.297796|  -11.746422|   -0.060042|   -0.000176|
|         565|  -12.306091|  -11.754415|   -0.060042|   -0.000176|
|         566|  -12.314378|  -11.762409|   -0.060042|   -0.000176|
|         567|  -12.322645|  -11.770387|   -0.060042|   -0.000176|
|         568|  -12.330916|  -11.778388|   -0.060042|   -0.000176|
|         569|  -12.339169|  -11.786380|   -0.060042|   -0.000176|
|         570|  -12.347421|  -11.794377|   -0.060042|   -0.000176|
|         571|  -12.355664|  -11.802375|   -0.060042|   -0.000176|
|         572|  -12.363892|  -11.810373|   -0.060042|   -0.000176|
|         573|  -12.372114|  -11.818369|   -0.060042|   -0.000176|
|         574|  -12.380333|  -11.826372|   -0.060042|   -0.000176|
|         575|  -12.388542|  -11.834370|   -0.060042|   -0.000176|
|         576|  -12.396751|  -11.842379|   -0.060042|   -0.000176|
|         577|  -12.404948|  -11.850382|   -0.060042|   -0.000176|
|         578|  -12.413140|  -11.858387|   -0.060042|   -0.000176|
|         579|  -12.421331|  -11.866395|   -0.060042|   -0.000176|
|         580|  -12.429517|  -11.874408|   -0.060042|   -0.000176|
|         581|  -12.437696|  -11.882422|   -0.060042|   -0.000176|
|         582|  -12.445868|  -11.890433|   -0.060042|   -0.000176|
|         583|  -12.454042|  -11.898451|   -0.060042|   -0.000176|
|         584|  -12.462208|  -11.906467|   -0.060042|   -0.000176|
|         585|  -12.470360|  -11.914476|   -0.060042|   -0.000176|
|         586|  -12.478522|  -11.922500|   -0.060042|   -0.000176|
|         587|  -12.486682|  -11.930524|   -0.060042|   -0.000176|
|         588|  -12.494828|  -11.938539|   -0.060042|   -0.000176|
|         589|  -12.502989|  -11.946576|   -0.060042|   -0.000176|
|         590|  -12.511129|  -11.954597|   -0.060042|   -0.000176|
|         591|  -12.519282|  -11.962638|   -0.060042|   -0.000176|
|         592|  -12.527422|  -11.970666|   -0.060042|   -0.000176|
|         593|  -12.535560|  -11.978693|   -0.060042|   -0.000176|
|         594|  -12.543691|  -11.986726|   -0.060042|   -0.000176|
|         595|  -12.551832|  -11.994766|   -0.060042|   -0.000176|
|         596|  -12.559967|  -12.002804|   -0.060042|   -0.000176|
|         597|  -12.568100|  -12.010842|   -0.060042|   -0.000176|
|         598|  -12.576233|  -12.018888|   -0.060042|   -0.000176|
|         599|  -12.584355|  -12.026920|   -0.060042|   -0.000176|
|         600|  -12.592500|  -12.034983|   -0.060042|   -0.000176|
|         601|  -12.600621|  -12.043028|   -0.060042|   -0.000176|
|         602|  -12.608741|  -12.051065|   -0.060042|   -0.000176|
|         603|  -12.616873|  -12.059125|   -0.060042|   -0.000176|
|         604|  -12.625000|  -12.067175|   -0.060042|   -0.000176|
|         605|  -12.633123|  -12.075230|   -0.060042|   -0.000176|
|         606|  -12.641256|  -12.083293|   -0.060042|   -0.000176|
|         607|  -12.649383|  -12.091358|   -0.060042|   -0.000176|
|         608|  -12.657510|  -12.099419|   -0.060042|   -0.000176|
|         609|  -12.665622|  -12.107476|   -0.060042|   -0.000176|
|         610|  -12.673731|  -12.115523|   -0.060042|   -0.000176|
|         611|  -12.681875|  -12.123608|   -0.060042|   -0.000176|
|         612|  -12.689979|  -12.131654|   -0.060042|   -0.000176|
|         613|  -12.698123|  -12.139748|   -0.060042|   -0.000176|
|         614|  -12.706245|  -12.147815|   -0.060042|   -0.000176|
|         615|  -12.714381|  -12.155901|   -0.060042|   -0.000176|
|         616|  -12.722485|  -12.163962|   -0.060042|   -0.000176|
|         617|  -12.730606|  -12.172034|   -0.060042|   -0.000176|
|         618|  -12.738729|  -12.180110|   -0.060042|   -0.000176|
|         619|  -12.746866|  -12.188202|   -0.060042|   -0.000176|
|         620|  -12.754990|  -12.196290|   -0.060042|   -0.000176|
|         621|  -12.763112|  -12.204366|   -0.060042|   -0.000176|
|         622|  -12.771227|  -12.212442|   -0.060042|   -0.000176|
|         623|  -12.779367|  -12.220549|   -0.060042|   -0.000176|
|         624|  -12.787486|  -12.228621|   -0.060042|   -0.000176|
|         625|  -12.795619|  -12.236724|   -0.060042|   -0.000176|
|         626|  -12.803745|  -12.244813|   -0.060042|   -0.000176|
|         627|  -12.811838|  -12.252873|   -0.060042|   -0.000176|
|         628|  -12.820003|  -12.261006|   -0.060042|   -0.000176|
|         629|  -12.828122|  -12.269091|   -0.060042|   -0.000176|
|         630|  -12.836259|  -12.277195|   -0.060042|   -0.000176|
|         631|  -12.844385|  -12.285279|   -0.060042|   -0.000176|
|         632|  -12.852507|  -12.293388|   -0.060042|   -0.000176|
|         633|  -12.860667|  -12.301518|   -0.060042|   -0.000176|
|         634|  -12.868755|  -12.309570|   -0.060042|   -0.000176|
|         635|  -12.876919|  -12.317712|   -0.060042|   -0.000176|
|         636|  -12.885052|  -12.325814|   -0.060042|   -0.000176|
|         637|  -12.893144|  -12.333887|   -0.060042|   -0.000176|
|         638|  -12.901320|  -12.342029|   -0.060042|   -0.000176|
|         639|  -12.909461|  -12.350143|   -0.060042|   -0.000176|
|         640|  -12.917587|  -12.358243|   -0.060042|   -0.000176|
|         641|  -12.925723|  -12.366366|   -0.060042|   -0.000176|
|         642|  -12.933849|  -12.374468|   -0.060042|   -0.000176|
|         643|  -12.941998|  -12.382584|   -0.060042|   -0.000176|
|         644|  -12.950139|  -12.390706|   -0.060042|   -0.000176|
|         645|  -12.958281|  -12.398825|   -0.060042|   -0.000176|
|         646|  -12.966421|  -12.406938|   -0.060042|   -0.000176|
|         647|  -12.974533|  -12.415037|   -0.060043|   -0.000176|
|         648|  -12.982733|  -12.423207|   -0.060043|   -0.000176|
|         649|  -12.990834|  -12.431306|   -0.060043|   -0.000176|
|         650|  -12.998997|  -12.439440|   -0.060043|   -0.000176|
|         651|  -13.007092|  -12.447537|   -0.060043|   -0.000176|

----------------------------- Solver Exit -------------------------------
All convergence criteria satisfied.
+-----------------------------------------------------------------------+
|      Convergence Field     |     Value    |   Criterion  |  Converged |
+-----------------------------------------------------------------------+
|                    rms[Rho]|      -13.0071|         < -13|         Yes|
+-----------------------------------------------------------------------+
-------------------------------------------------------------------------
+-----------------------------------------------------------------------+
|        File Writing Summary       |              Filename             |
+-----------------------------------------------------------------------+
|SU2 restart                        |restart_flow.dat                   |
|Paraview                           |flow.vtu                           |
|Paraview surface                   |surface_flow.vtu                   |
|CSV file                           |surface_flow.csv                   |
+-----------------------------------------------------------------------+

------------------------- Solver Postprocessing -------------------------
Deleted CNumerics container.
Deleted CIntegration container.
Deleted CSolver container.
Deleted CIteration container.
Deleted CInterpolator container.
Deleted CInterface container.
Deleted CGeometry container.
Deleted CFreeFormDefBox class.
Deleted CSurfaceMovement class.
Deleted CVolumetricMovement class.
Deleted CConfig container.
Deleted nInst container.
Deleted COutput class.
-------------------------------------------------------------------------

------------------------- Exit Success (SU2_CFD) ------------------------

